8 
0 1
Al      1.610863      0.000000     -0.000000
Al     -1.610863      0.000000      0.000000
Cl      0.000000     -0.000000      1.637715
Cl      0.000000     -0.000000     -1.637715
Cl      2.609591      1.849353      0.000000
Cl      2.609591     -1.849353     -0.000000
Cl     -2.609591      1.849353     -0.000000
Cl     -2.609591     -1.849353      0.000000
