18 
0 1
C     -3.138549      2.048751      0.000844
C     -3.150128      0.574620     -0.000461
C      2.538408      2.004167     -0.000093
C      2.526830      0.530035     -0.001336
C     -0.987541      1.294751     -0.000064
C      0.375822      1.284035     -0.000296
C     -1.853653      2.478982      0.001050
C     -1.872142      0.124262     -0.000965
C      1.260423      2.454525      0.000523
C      1.241934      0.099804     -0.001475
H     -4.029068      2.675028      0.001366
H     -1.505163      3.507413      0.001774
H     -4.050380     -0.037584     -0.001020
H     -1.539840     -0.909511     -0.002005
H      0.928121      3.488298      0.001423
H      3.438660      2.616371      0.000248
H      0.893445     -0.928626     -0.002333
H      3.417350     -0.096241     -0.002049
