7 
0 1
O      0.001569      0.000000      0.002587
C     -0.000750     -0.000000      1.428350
C      1.257257     -0.000000      0.677819
H     -0.351562     -0.926544      1.890969
H     -0.351562      0.926544      1.890969
H      1.830976     -0.926553      0.588916
H      1.830976      0.926553      0.588916
