7 
0 1
Se     -0.278770     -0.000000     -0.467309
C      0.026752      0.000000      1.482088
C      1.291476      0.000000      0.727545
H     -0.283814     -0.921541      1.974765
H     -0.283814      0.921541      1.974765
H      1.872537     -0.921543      0.688336
H      1.872537      0.921543      0.688336
