8 
0 1
C     -0.645415     -0.372624      0.263441
Cl     -0.654169     -2.049263     -0.323978
Cl     -0.654165     -0.377612      2.040000
Cl     -2.101945      0.458107     -0.323912
C      0.645415      0.372624     -0.263441
Cl      0.654169      2.049263      0.323978
Cl      0.654165      0.377612     -2.040000
Cl      2.101945     -0.458107      0.323912
