8 
0 1
H     -0.000000      0.000000     -2.349997
H     -0.000000      0.000000      2.349997
C      0.000000     -0.000000      1.260066
C     -0.000000     -0.000000     -1.260066
N      0.000000      1.191703      0.657159
N      0.000000     -1.191703      0.657159
N     -0.000000      1.191703     -0.657159
N     -0.000000     -1.191703     -0.657159
