8 
0 1
C     -7.076330     -2.020977      1.447032
C     -5.751183     -1.436526      1.792708
H     -7.759281     -1.231565      1.108755
H     -7.527487     -2.487456      2.331461
H     -6.920092     -2.759712      0.656934
O     -4.679084     -1.682136      1.318257
O     -5.705511     -0.478065      2.788375
F     -7.007552     -0.238752      3.303219
