8 
0 1
C      1.270584      0.840017     -0.000039
H      1.862572     -0.086100     -0.000026
N     -0.003023      0.854414     -0.000053
C      2.000701      2.141371      0.000004
H      1.298919      2.982495      0.000004
H      2.650134      2.202100      0.885751
H      2.650174      2.202133     -0.885711
Br     -0.794664     -0.876333      0.000070
