7 
0 1
C     -0.004804      0.000001      0.002504
O      0.002075     -0.000000      1.210197
H      0.960010     -0.000001     -0.562713
C     -1.241097      0.000000     -0.841726
H     -2.140667     -0.000000     -0.216709
H     -1.231616      0.882284     -1.500018
H     -1.231615     -0.882284     -1.500018
