9 
0 1
H      1.126132     -1.782982      0.000002
H      2.028959     -0.296416     -0.000005
H     -2.128660     -0.208897     -0.000002
H     -1.289596     -1.513140      0.889110
H     -1.289592     -1.513140     -0.889110
C      0.006578     -0.049215      0.000004
C     -1.256064     -0.865103      0.000000
S      0.020750      1.609425      0.000001
N      1.139986     -0.773957      0.000001
