9 
0 1
H      1.169889     -1.730449     -0.000000
H      2.034693     -0.223600      0.000000
H     -2.124309     -0.151165      0.000000
H     -1.308774     -1.473173      0.888879
H     -1.308774     -1.473173     -0.888879
C      0.000702     -0.004531     -0.000000
C     -1.266412     -0.828488      0.000000
O      0.001901      1.215342     -0.000000
N      1.159578     -0.724187     -0.000000
