8 
0 1
C      0.002244      0.817589     -0.000000
H     -0.361142      1.339630      0.892457
H     -0.361142      1.339630     -0.892457
C      1.505473      0.672838     -0.000000
H      1.848284      0.131599     -0.890543
H      1.848284      0.131599      0.890543
H      1.967266      1.671323      0.000000
Cl     -0.809627     -0.793179     -0.000000
