9 
0 1
S     -5.252157      2.645786      0.361796
C     -3.448949      2.695698      0.203358
C     -5.697631      2.996925     -1.357918
H     -3.028107      2.494557      1.196159
H     -3.110353      3.685769     -0.130874
H     -3.093575      1.925495     -0.494580
H     -5.324169      3.982295     -1.668027
H     -6.792910      2.998968     -1.417723
H     -5.307639      2.222018     -2.031743
