8 
0 1
C      0.000000     -0.000001     -0.087375
C     -0.000000      0.000005      1.434380
H      0.886246      0.511674      1.835114
H     -0.886246      0.511674      1.835114
H     -0.000000     -1.023341      1.835116
H     -0.000000      1.023268     -0.488106
H     -0.886179     -0.511630     -0.488106
H      0.886179     -0.511630     -0.488106
