10 
0 1
C     -0.003947      0.709225      0.189529
C     -1.316295     -0.071175     -0.074337
F     -1.183473     -0.887047     -1.128382
F     -2.316468      0.771197     -0.302784
F     -1.612803     -0.812633      1.003125
C      1.317538     -0.076415     -0.000447
O     -0.011391      1.854364      0.522655
F      1.202112     -1.322203      0.478202
F      2.314418      0.536402      0.625571
F      1.606229     -0.146634     -1.308393
