12 
0 1
H      1.161128     -1.731619     -0.000000
H      2.036838     -0.231103     -0.000000
H     -1.248974     -1.487056      0.880119
H     -1.248974     -1.487056     -0.880119
H     -3.422513     -0.600402     -0.000000
H     -2.551979      0.680872     -0.883169
H     -2.551979      0.680872      0.883169
C      0.003028      0.000278      0.000000
C     -1.271477     -0.825245      0.000000
C     -2.525111      0.031540     -0.000000
O      0.010203      1.220411      0.000000
N      1.158165     -0.725210     -0.000000
