12 
0 1
H     -2.021270     -1.511323      0.000000
H     -0.024956      1.995967      0.000000
H      2.183202     -1.601182     -0.000000
H     -0.028491     -2.791232      0.000000
C     -1.227179      0.357761     -0.000000
C      1.271535      0.390834      0.000000
C      1.239993     -1.063927     -0.000000
C      0.052203     -1.705107     -0.000000
O     -2.291030      0.945299      0.000000
O      2.270515      1.086571     -0.000000
N     -1.136805     -1.025169     -0.000000
N     -0.000278      0.983279     -0.000000
