12 
0 1
C     -0.000000      1.077235      0.130945
C     -0.000000     -1.077235      0.130945
C     -1.077235      0.000000     -0.130945
C      1.077235      0.000000     -0.130945
H      0.000000      1.972232     -0.504600
H      0.000000      1.394390      1.182988
H      0.000000     -1.972232     -0.504600
H      0.000000     -1.394390      1.182988
H     -1.972232     -0.000000      0.504600
H     -1.394390     -0.000000     -1.182988
H      1.972232      0.000000      0.504600
H      1.394390      0.000000     -1.182988
