16 
0 1
C      1.261064      0.630915     -2.645811
C      1.258742      0.631333     -1.311378
H      2.190764      0.629803     -3.215763
H      0.328858      0.634607     -3.215792
H      2.218284      0.624991     -0.781890
C      0.036038      0.622064     -0.449397
H      0.031564      1.515289      0.196577
H     -0.865008      0.678047     -1.079104
C     -0.036038     -0.622064      0.449397
H     -0.031564     -1.515289     -0.196577
H      0.865008     -0.678047      1.079104
C     -1.258742     -0.631333      1.311378
C     -1.261064     -0.630915      2.645811
H     -2.218284     -0.624991      0.781890
H     -2.190764     -0.629803      3.215763
H     -0.328858     -0.634607      3.215792
