15 
0 1
H      0.904905      0.000000      1.971142
H     -0.904905     -0.000000      1.971142
H     -0.000000      2.158397      0.617409
H      0.000000     -2.158397      0.617409
H      1.928424      1.339030     -1.024663
H     -1.928424     -1.339030     -1.024663
H     -1.928424      1.339030     -1.024663
H      1.928424     -1.339030     -1.024663
C     -0.000000     -0.000000      1.349005
C     -0.000000      1.118939      0.273420
C      0.000000     -1.118939      0.273420
C      1.236282      0.668800     -0.519077
C     -1.236282     -0.668800     -0.519077
C     -1.236282      0.668800     -0.519077
C      1.236282     -0.668800     -0.519077
