9 
0 1
C     -3.425142     -0.486835      0.243483
S     -1.680167      0.059554      0.658982
F     -4.189531     -0.354115      1.325311
F     -3.389657     -1.759331     -0.127041
F     -3.905453      0.259674     -0.739878
O     -0.931068      0.114904     -0.589638
O     -1.259847     -0.695424      1.842996
O     -2.002864      1.597355      1.099783
H     -2.101530      1.603628      2.065263
