9 
0 1
C     -5.447320      1.921774     -0.004564
C     -4.339966      2.949111     -0.031979
H     -5.091884      0.890532      0.112561
H     -6.017223      2.004010     -0.938441
H     -6.127072      2.168456      0.819916
O     -4.566610      4.145213     -0.115059
N     -3.069859      2.460312      0.037928
H     -2.871583      1.476377      0.103590
H     -2.304304      3.116604      0.016047
