8 
0 1
C     -1.764994      1.084321      0.024899
C     -0.305122      1.598427     -0.049558
H     -2.338206      1.490640      0.881505
H     -1.848688     -0.015768      0.125828
H     -2.374533      1.333438     -0.866056
Li      0.861424      1.208095      1.459012
Li     -0.039569      3.518440     -0.229541
Li      0.782419      0.942368     -1.527709
