7 
0 1
N     -0.996973      0.682129     -0.159376
H     -1.028929      1.315568      0.639649
Br      0.754538     -0.065450      0.001506
C     -2.005881     -0.354597      0.025529
H     -2.982433      0.151932     -0.013043
H     -1.952903     -1.061122     -0.811070
H     -1.926846     -0.912103      0.972844
