8 
0 1
C      1.550959     -0.070662      0.025818
O      2.555218     -0.735863     -0.169482
N      1.516067      1.281425      0.045192
H      0.681167      1.800691      0.261825
H      2.393076      1.763000     -0.061497
N      0.361563     -0.749292      0.336303
Br     -1.311113      0.024022     -0.050882
H      0.395587     -1.687992     -0.050897
