7 
0 1
C     -1.319045     -0.000936     -0.005854
N      0.168330     -0.000013     -0.008948
O      0.724222     -1.081097      0.003987
O      0.722297      1.082069      0.003937
H     -1.625829      0.008327      1.046097
H     -1.659504      0.906686     -0.508904
H     -1.658762     -0.917075     -0.493606
