8 
0 1
C     -0.000000      0.000004     -0.322207
Si     -0.000000      0.000006      1.564703
H      1.214884      0.701416      2.093555
H     -1.214884      0.701416      2.093555
H      0.000000     -1.402823      2.093544
H      0.000000      1.027308     -0.711716
H     -0.889674     -0.513653     -0.711702
H      0.889674     -0.513653     -0.711702
