7 
0 1
C     -0.000000     -0.000000     -0.566819
N     -1.115608     -0.000000      0.171928
N      1.115608     -0.000000      0.171928
H     -2.006175      0.000000     -0.295104
H      2.006175      0.000000     -0.295104
H     -1.140528      0.000000      1.193771
H      1.140528     -0.000000      1.193771
