7 
-1 1
P     -1.364491      0.886666     -0.169469
O      0.296786      1.177882     -0.253971
O     -2.054572      1.929977     -1.017260
O     -1.672697      1.259280      1.448710
H      0.687340      0.300634     -0.178992
H     -1.694665      0.399201      1.881726
O     -1.524300     -0.632990     -0.282054
