7 
0 1
S      0.000000     -0.000000      0.000000
Br      0.000000      0.000000     -2.365372
Br     -0.000000      2.365372     -0.000000
Br     -0.000000     -2.365372     -0.000000
Br      2.365372     -0.000000     -0.000000
Br     -2.365372     -0.000000     -0.000000
Br      0.000000      0.000000      2.365372
