7 
0 1
S      0.000000      0.000000      0.000000
Cl     -0.000000      0.000000     -2.156789
Cl     -0.000000      2.156789     -0.000000
Cl     -0.000000     -2.156789     -0.000000
Cl      2.156789     -0.000000      0.000000
Cl     -2.156789     -0.000000      0.000000
Cl     -0.000000      0.000000      2.156789
