7 
0 1
S     -0.000000     -0.000000      0.000000
F      0.000000      0.000000     -1.602112
F      1.602112      0.000000     -0.000000
F     -1.602112      0.000000     -0.000000
F      0.000000      1.602112      0.000000
F      0.000000     -1.602112     -0.000000
F      0.000000      0.000000      1.602112
