13 
0 1
C      0.000000      0.000000      0.447625
C      1.266210      0.000000     -0.369399
C     -1.266210      0.000000     -0.369399
C      2.501654     -0.000000      0.133958
C     -2.501654      0.000000      0.133958
H      3.377353     -0.000000     -0.515089
H     -3.377353     -0.000000     -0.515089
H      2.684356     -0.000000      1.211232
H     -2.684356      0.000000      1.211232
H     -0.000000     -0.877196      1.114057
H      0.000000      0.877196      1.114057
H      1.145769      0.000000     -1.457807
H     -1.145769     -0.000000     -1.457807
