11 
0 1
H     -0.880985     -0.000000      1.875771
H      0.880985      0.000000      1.875771
H     -0.000000      2.213737      0.613450
H      0.000000     -2.213737      0.613450
H      0.000000      1.353171     -1.887024
H     -0.000000     -1.353171     -1.887024
C      0.000000      0.000000      1.211271
C      0.000000     -1.176109      0.284549
C     -0.000000      1.176109      0.284549
C     -0.000000     -0.732344     -0.991484
C      0.000000      0.732344     -0.991484
