12 
0 1
C      0.000000     -1.391008     -0.000000
C      1.204718     -0.695621     -0.000000
C      1.204718      0.695621      0.000000
C     -0.000000      1.391008     -0.000000
C     -1.204718      0.695621      0.000000
C     -1.204718     -0.695621     -0.000000
F     -0.000000     -2.721250      0.000000
F      2.355925     -1.362158     -0.000000
F      2.355925      1.362158      0.000000
F     -0.000000      2.721250      0.000000
F     -2.355925      1.362158      0.000000
F     -2.355925     -1.362158     -0.000000
