9 
0 1
H      0.000000      2.052532      0.849294
H      0.000000     -2.052532      0.849294
H      0.000000      1.380081     -1.818735
H     -0.000000     -1.380081     -1.818735
C      0.000000      1.090678      0.349123
C      0.000000     -1.090678      0.349123
C      0.000000      0.716588     -0.959765
C     -0.000000     -0.716588     -0.959765
O     -0.000000      0.000000      1.155717
