9 
0 1
H      0.000000      2.120952      0.711471
H     -0.000000      1.204084     -1.905499
H     -0.000000     -2.104546      0.663476
H     -0.000000     -0.014097      2.110873
C      0.000000      1.116525      0.304550
C     -0.000000      0.634342     -0.981455
C     -0.000000     -1.087890      0.283486
N      0.000000     -0.738640     -0.983449
N     -0.000000     -0.001361      1.102980
