8 
0 1
N      1.128075      0.310938     -0.000000
O      0.004469      1.106489     -0.000000
C     -1.087100      0.332141      0.000000
C     -0.732788     -0.981209     -0.000000
C      0.687479     -0.922688      0.000000
H     -2.040856      0.850317      0.000000
H     -1.377981     -1.851743     -0.000000
H      1.407092     -1.737636      0.000000
