13 
0 1
C     -0.000973      0.940516      0.000000
C     -1.205113      0.232709      0.000000
C     -1.187111     -1.161513      0.000000
C      0.021812     -1.854577      0.000000
C      1.219175     -1.136751      0.000000
C      1.215587      0.254886      0.000000
O      0.049377      2.302767     -0.000000
H     -0.846109      2.654493     -0.000000
H     -2.155687      0.771261      0.000000
H     -2.131295     -1.707756     -0.000000
H      0.031914     -2.944294     -0.000000
H      2.172277     -1.667400     -0.000000
H      2.143314      0.826489      0.000000
