9 
0 1
N      0.319455      1.023774      0.000000
C     -0.979112      0.642803     -0.000000
C     -0.971732     -0.738717      0.000000
C      0.398533     -1.081289     -0.000000
N      1.176797     -0.002584     -0.000000
H      0.683958      1.963445      0.000000
H     -1.789142      1.364595     -0.000000
H     -1.831009     -1.400217      0.000000
H      0.851202     -2.068780     -0.000000
