10 
0 1
H     -0.000000      2.407797     -0.155087
H      0.000000     -2.407797     -0.155087
H      0.000000      1.273948      2.101568
H     -0.000000     -1.273948      2.101568
C     -0.000000      1.319977     -0.066512
C     -0.000000     -1.319977     -0.066512
C      0.000000      0.691304      1.180320
C     -0.000000     -0.691304      1.180320
N      0.000000      0.661987     -1.226032
N      0.000000     -0.661987     -1.226032
