10 
0 1
H      0.000000      2.156306      1.118139
H      0.000000     -2.156306      1.118139
H     -0.000000      0.000000     -2.398183
H      0.000000      0.000000      2.442639
C     -0.000000      1.183062      0.620384
C     -0.000000     -1.183062      0.620384
C      0.000000     -0.000000     -1.306030
C     -0.000000      0.000000      1.353188
N      0.000000      1.195886     -0.714528
N      0.000000     -1.195886     -0.714528
