15 
0 1
C     -0.005671      0.916007      0.000000
C     -0.008661      0.197045      1.200547
C     -0.008661      0.197045     -1.200547
C     -0.006952     -1.197030      1.203807
C     -0.006952     -1.197030     -1.203807
C     -0.004901     -1.900652     -0.000000
C      0.026504      2.418757     -0.000000
H      1.063605      2.787167     -0.000000
H     -0.468112      2.829891     -0.889645
H     -0.468112      2.829891      0.889645
H     -0.011209     -1.736660      2.152047
H     -0.011209     -1.736660     -2.152047
H     -0.006316     -2.991244     -0.000000
H     -0.013961      0.738032      2.149104
H     -0.013961      0.738032     -2.149104
