9
0 1
C     13.742134     0.138736     9.066557
C     15.250286     0.058089     9.094103
O     15.847066    -0.898732     8.556764
N     15.895217     1.023070     9.748501
H     16.891574     0.936683     9.959027
H     15.373308     1.793814    10.171272
H     13.364679    -0.344849     9.969770
H     13.378469     1.164128     9.058435
H     13.352727    -0.393550     8.203781
