8
0 1
O      7.143200    14.682947     5.218189
C      6.342041    15.168110     6.151135
O      5.958845    16.333594     6.131367
C      5.935284    14.156876     7.176277
H      7.392534    15.378642     4.538966
H      5.145199    13.538307     6.746328
H      6.766442    13.498311     7.416314
H      5.548176    14.645556     8.064167
