8
0 1
C      0.014331    -0.000606    -0.001554
C      0.014331    -0.000606     1.341554
C      1.577568     0.119215     1.342902
C      1.577568     0.119215    -0.002902
H     -0.743319    -0.075251    -0.765703
H      2.338658     0.202715    -0.764122
H      2.338658     0.202715     2.104122
H     -0.743319    -0.075251     2.105703
