8
0 1
C     -0.280201     1.530851     0.000000
C      1.251266     1.864827     0.000000
C      1.533960     0.551408     0.000000
C      0.000941     0.216397     0.000000
H     -1.188601     2.114045     0.000000
H     -0.579666    -0.694314     0.000000
H      2.443484    -0.030027     0.000000
H      1.838464     2.770643     0.000000
