10
0 1
C      0.776217    -0.496391     0.000000
C      0.000000     0.597981     0.000000
C      0.520307     1.954501     0.000000
C     -0.253411     3.050379     0.000000
H     -1.080044     0.487387     0.000000
H      1.600508     2.063671     0.000000
H     -1.332865     2.967544     0.000000
H      1.855285    -0.400157     0.000000
H      0.174178     4.042662     0.000000
H      0.354978    -1.491870     0.000000
