10
0 1
C      0.792632     0.000000    -0.287325
C      0.334343     0.000000     0.973612
C      1.198851     0.000000     2.141155
C      0.743962     0.000000     3.403390
H     -0.737455     0.000000     1.141379
H      2.269498     0.000000     1.960251
H     -0.318935     0.000000     3.608952
H      1.856159     0.000000    -0.492670
H      1.419539     0.000000     4.246756
H      0.107882     0.000000    -1.122762
