12
0 1
C      1.368111     0.000000     1.133918
C      0.670459     1.208583     1.134066
C     -0.724062     1.208165     1.133229
C     -1.420939     0.000000     1.132390
C     -0.724062    -1.208165     1.133229
C      0.670459    -1.208583     1.134066
H      2.450444     0.000000     1.136226
H      1.211850     2.145550     1.139634
H     -1.264896     2.145580     1.135578
H     -2.503435     0.000000     1.130070
H     -1.264896    -2.145580     1.135578
H      1.211850    -2.145550     1.139634
