9
0 1
O      0.492354     9.062364     2.537438
N      1.798473     8.683123     2.876901
C      2.471400     9.808028     3.017689
O      3.748782     9.841113     3.372032
C      1.656726    10.943747     2.752056
C      0.452423    10.405167     2.466513
H      4.054562     8.927298     3.666928
H      1.933991    11.981652     2.790034
H     -0.503537    10.821499     2.208674
