11
0 1
N     10.523419     6.507555     3.968155
O     11.532758     5.012606     5.251371
O     10.857310     4.343759     3.212849
C     10.916750     7.299279     5.126607
C     11.357116     6.187087     6.093712
C     10.942911     5.236236     4.048467
H     10.120473     6.888270     3.108537
H     11.720947     7.990250     4.878481
H     10.077746     7.869415     5.521536
H     10.594898     5.947630     6.833609
H     12.300665     6.387798     6.587817
