11
0 1
N      7.885048     4.838445     5.370438
O      6.875708     6.333394     4.087222
O      7.551157     7.002241     6.125743
C      7.491717     4.046721     4.211985
C      7.051351     5.158913     3.244881
C      7.465555     6.109764     5.290126
H      8.287993     4.457730     6.230055
H      6.687519     3.355750     4.460112
H      8.330720     3.476585     3.817056
H      7.813568     5.398370     2.504984
H      6.107802     4.958202     2.750776
