9
0 1
C     -4.173485    12.798386    10.314750
N     -3.455748    13.924245    10.314750
H     -3.632433    11.861257    10.314750
C     -6.123530    13.924245    10.314750
N     -5.507376    12.739737    10.314750
H     -7.205634    13.924245    10.314750
C     -4.173485    15.050104    10.314750
N     -5.507376    15.108753    10.314750
H     -3.632433    15.987233    10.314750
