9
0 1
C      0.650015    10.013537     7.887750
N      1.367752    11.139396     7.887750
H      1.191067     9.076408     7.887750
C     -1.300030    11.139396     7.887750
N     -0.683876     9.954888     7.887750
H     -2.382134    11.139396     7.887750
C      0.650015    12.265255     7.887750
N     -0.683876    12.323904     7.887750
H      1.191067    13.202384     7.887750
