17 
0 1
Ni     -0.000000      0.000000     -0.000000
P      1.217017      1.217017      1.217017
P     -1.217017     -1.217017      1.217017
P     -1.217017      1.217017     -1.217017
P      1.217017     -1.217017     -1.217017
F      2.245421      2.245421      0.540248
F      0.540248      2.245421      2.245421
F      2.245421      0.540248      2.245421
F     -0.540248     -2.245421      2.245421
F     -2.245421     -0.540248      2.245421
F     -2.245421     -2.245421      0.540248
F     -2.245421      2.245421     -0.540248
F     -0.540248      2.245421     -2.245421
F     -2.245421      0.540248     -2.245421
F      0.540248     -2.245421     -2.245421
F      2.245421     -0.540248     -2.245421
F      2.245421     -2.245421     -0.540248
