8 
0 1
Ti      0.000000      0.000182      0.121021
Cl     -0.000000      2.109855     -0.430370
Cl     -1.827242     -1.054732     -0.429294
Cl      1.827242     -1.054732     -0.429294
C     -0.000000     -0.000003      2.138998
H      0.904267      0.521860      2.487066
H     -0.000000     -1.044290      2.486413
H     -0.904267      0.521860      2.487066
