13 
-1 1
V      0.000000     -0.000000     -0.000000
C     -1.944713      0.000000     -0.000000
C     -0.000000      0.000000      1.944713
C     -0.000000      0.000000     -1.944713
C     -0.000000      1.944713     -0.000000
C     -0.000000     -1.944713     -0.000000
C      1.944713      0.000000     -0.000000
O     -0.000000      3.106258     -0.000000
O     -3.106258      0.000000     -0.000000
O      3.106258      0.000000     -0.000000
O     -0.000000      0.000000     -3.106258
O     -0.000000      0.000000      3.106258
O     -0.000000     -3.106258     -0.000000
