  20
0 1
   C     0.304402    0.098059    2.562634
   C     0.304402   -0.677011    1.252731
   C     0.110122    0.179523    0.000000
   C     0.304402   -0.677011   -1.252731
   C     0.304402    0.098059   -2.562634
   C    -1.244232    0.879541    0.000000
   H    -0.662062    0.555740    2.766161
   H     1.050751    0.892948    2.545511
   H     0.537333   -0.554789    3.402315
   H    -0.477014   -1.441957    1.278641
   H     1.250648   -1.214191    1.158384
   H     0.891449    0.948460    0.000000
   H    -0.477014   -1.441957   -1.278641
   H     1.250648   -1.214191   -1.158384
   H     1.050751    0.892948   -2.545511
   H    -0.662062    0.555740   -2.766161
   H     0.537333   -0.554789   -3.402315
   H    -1.370043    1.512427    0.876255
   H    -2.051662    0.144216    0.000000
   H    -1.370043    1.512427   -0.876255
