  20
0 1
   C    -2.428313   -0.403008   -0.105327
   C    -0.949521   -0.763318   -0.119381
   C    -0.043825    0.293818    0.515872
   C     1.386944   -0.223765    0.708989
   C     2.139895   -0.553539   -0.573720
   C    -0.069600    1.608112   -0.259264
   H    -2.633779    0.479778   -0.708905
   H    -2.770559   -0.196977    0.909413
   H    -3.035166   -1.216165   -0.500268
   H    -0.632163   -0.939647   -1.149818
   H    -0.805226   -1.708037    0.410288
   H    -0.437907    0.494691    1.517423
   H     1.350471   -1.114087    1.340874
   H     1.951024    0.524647    1.269965
   H     2.229466    0.316848   -1.222183
   H     1.646197   -1.341444   -1.140786
   H     3.148341   -0.897479   -0.349731
   H    -1.057310    2.064775   -0.240459
   H     0.201458    1.457220   -1.304890
   H     0.631671    2.326080    0.166069
