  20
0 1
   C     2.222321   -0.894105   -0.138339
   C     0.792226   -0.760303    0.366306
   C    -0.001419    0.381980   -0.270411
   C    -1.454149    0.402585    0.211796
   C    -2.274617   -0.825248   -0.157289
   C     0.649815    1.735599   -0.009215
   H     2.833553   -0.035403    0.133293
   H     2.245272   -0.986613   -1.224830
   H     2.701716   -1.778875    0.277485
   H     0.796425   -0.617834    1.451255
   H     0.270699   -1.700467    0.184739
   H    -0.014058    0.214168   -1.353641
   H    -1.938678    1.288485   -0.204110
   H    -1.460589    0.537922    1.297333
   H    -1.916689   -1.724201    0.341115
   H    -2.242422   -1.007002   -1.232090
   H    -3.318483   -0.694118    0.123409
   H     1.654000    1.793787   -0.424413
   H     0.720622    1.925896    1.063517
   H     0.063571    2.541201   -0.450156
