22
0 1
  N   1.04716841224408     -1.79916909528490     -2.10372661554113
  H   2.01607380499361     -1.72864503944674     -2.36232802052517
  C   0.69827602510871     -2.52740859037178     -0.90153700125339
  H   0.19407912573142     -3.45581073678550     -1.17004461526591
  C   1.96232058174118     -2.83819984171930     -0.11142538952923
  C   -0.30865761738921     -1.84477719471402      0.02440956977535
  H   1.70273084214279     -3.41148864232248      0.77487283751965
  H   2.65517667267283     -3.42634423460186     -0.71297782241509
  H   2.46161074604702     -1.92229500858622      0.20431205720997
  O   -1.08876825038784     -2.54915359892921      0.65055771279133
  C   0.09101895451907     -1.42767341123369     -3.00067457734611
  C   0.60200923711953     -0.81417659441281     -4.28248781338580
  H   0.00549258280427      0.06532007202518     -4.50822329131277
  H   0.45740769845482     -1.52836405044220     -5.09099440679103
  H   1.65352358121618     -0.53975980187535     -4.23739622019102
  O   -1.10011760554090     -1.57988289357641     -2.76798271633595
  N   -0.24663958770188     -0.50096089212000      0.23515690669165
  H   -0.98706367062975     -0.19050176019166      0.84448126320693
  C   0.53009936467392      0.51932588448526     -0.43579301289605
  H   0.14224986846663      0.76034811210025     -1.42583237502533
  H   0.49406434170776      1.41836585668119      0.17499873856522
  H   1.57104689200575      0.22594946132226     -0.52926420794609
