22
0 1
  N   0.95196677835064     -1.97002585567387     -2.00982889759520
  H   1.91690969020061     -2.20633923892877     -2.18718620331373
  C   0.63971815226256     -0.56819602851834     -1.78315037462155
  H   1.55396589318257     -0.13480083893614     -1.36791444052121
  C   0.28862605026534      0.19089657174439     -3.05308861113483
  C   -0.43540633148409     -0.37070013850193     -0.70963621207375
  H   0.13741308968590      1.24560316311565     -2.83683353400651
  H   1.09731540132635      0.08179932698446     -3.77329200761181
  H   -0.62750205734941     -0.19198763698678     -3.49438152630453
  O   -1.44261131057933      0.29089929345917     -0.92587979808018
  C   0.10442498100647     -3.00997498254514     -2.30291032357775
  C   -1.37592522624924     -2.77530876743526     -2.13969011832341
  H   -1.63692224659237     -2.86100426653493     -1.08491927212724
  H   -1.89264449137107     -3.55493026537556     -2.68893814754098
  H   -1.70212112153457     -1.79647813205318     -2.47785839672145
  O   0.55846654613875     -4.09837948324976     -2.62910369875203
  N   -0.19985501820298     -0.94367643092003      0.50032980361327
  H   -0.94375997318184     -0.78831716817844      1.16214752948524
  C   0.95599621811213     -1.70461123869324      0.92972419121254
  H   1.87112519771873     -1.28440442195727      0.52033182114522
  H   1.02120923161971     -1.64229262733493      2.01304225989683
  H   0.89910954667514     -2.75227183348009      0.63863495695307
