22
0 1
  N   -0.96244235048621      0.29108553855755     -0.96664828790936
  H   -0.96169500230977     -0.07219441456711     -1.90869917026598
  C   0.34965441833948      0.58146336026140     -0.42898015033029
  H   0.95102987382309      0.84832268560338     -1.29827055359328
  C   0.38766313925715      1.77582133846748      0.52652947621538
  C   0.98710043813019     -0.63491057312897      0.25117078377425
  H   1.41877382913351      2.06333300270501      0.72489943104105
  H   -0.13169723729210      2.62036731567843      0.07800328983944
  H   -0.07643606818629      1.54075766208128      1.47875329950271
  O   0.31548027561854     -1.49690758138348      0.79986767614377
  C   -2.12130135537018     -0.10481150393195     -0.32477305173909
  C   -2.29439387158514      0.22615300172607      1.13443893628073
  H   -2.33221119947541      1.30483908449154      1.27552260522065
  H   -1.48395160303052     -0.18791580783114      1.72609709647459
  H   -3.23722572799105     -0.20583981976729      1.45191211694940
  O   -3.00647844508897     -0.64206800200361     -0.97385330174153
  N   2.35054825058782     -0.66590899969931      0.27008220459482
  H   2.71724597956782     -1.49808726771908      0.70551222833590
  C   3.25065654978628      0.12419391342069     -0.54641030462376
  H   3.18619490182198     -0.12482261786046     -1.60664647609078
  H   3.06534320653316      1.18825825933462     -0.42407313196865
  H   4.26728199821662     -0.06749757443506     -0.21550571610996
