19
0 1
  C   0.27554547651254      0.32783156705874      1.20338553327468
  H   0.84285882181538     -0.11707535246629      2.02092832298439
  H   -0.21319045504590      1.21705673528266      1.59349952986035
  N   -0.69827473756077     -0.64033320997064      0.75146755923326
  H   -0.53425563427413     -1.62045761475021      0.91280151230582
  C   1.23165852721568      0.81922701837153      0.11837211342559
  O   1.29862939779867      2.00829689910769     -0.17088849180505
  C   -1.74651637802285     -0.39240424727650     -0.10001738701879
  O   -2.41405620609969     -1.31163402182017     -0.55092430302521
  N   1.99356391691168     -0.11863286761198     -0.50304295793061
  H   2.54748296917217      0.24981478315296     -1.25984985057344
  C   1.99276014140136     -1.54875636953019     -0.28274438195667
  H   2.94868500182168     -1.95031770979421     -0.60828445024387
  H   1.19666024373546     -2.05699033343081     -0.82663795834073
  H   1.89530304017068     -1.77321942656991      0.77697452134162
  C   -2.03311676609726      1.05880911632761     -0.39083314001322
  H   -2.81657270207263      1.10241524541147     -1.13862099178477
  H   -1.15108576177496      1.59312875712083     -0.73819233314787
  H   -2.37816489560710      1.55468303138742      0.51663415341451
