19
0 1
  C   0.27664312206594     -0.67576346109831      0.67499939484184
  H   0.18618720169707     -1.64942931831437      1.15666210075165
  H   0.11763601779005      0.09870102881376      1.42259885760752
  N   -0.67641894417180     -0.49611971592275     -0.40177650991206
  H   -0.51019660712061     -1.01430393762132     -1.25286553031116
  C   1.69713879897061     -0.59858184403984      0.13120253268626
  O   2.39711710779293     -1.59918054071144      0.04850194301444
  C   -1.97687144476163     -0.07670647727646     -0.26939047088261
  O   -2.77024850189342     -0.17726824819350     -1.19254541285537
  N   2.11336908929084      0.62504236208255     -0.28782231691865
  H   3.06455156433969      0.64096269736711     -0.61943575539730
  C   1.41615711755344      1.88077219311038     -0.10018876468906
  H   1.86331272525497      2.62575175732066     -0.75198870360733
  H   1.48017768608357      2.24501300559758      0.92646464807744
  H   0.37209417442510      1.77651480757607     -0.38183584882222
  C   -2.34950674171820      0.54067478618485      1.05791732689099
  H   -1.70729962780927      1.38708438197255      1.29889383400449
  H   -3.37737393595082      0.87789022332960      0.98826610402940
  H   -2.26212780183845     -0.18543070017711      1.86507657149173
