19
0 1
  C   0.03453677665020      1.04293926125487      0.44246823429841
  H   -0.10354543609467      0.82736137447964      1.50187159401116
  H   0.41440004097172      2.06327926786625      0.37905912830496
  N   -1.22911709762380      0.97215316342210     -0.23284144696089
  H   -1.27859454012822      1.38736846098858     -1.15123539413277
  C   1.07886150072190      0.06029809865146     -0.09531680072364
  O   0.76202234032852     -0.95577332230500     -0.69464249872144
  C   -2.14001256490077     -0.05179159135071     -0.08426519177201
  O   -3.03490928107923     -0.21223951524158     -0.89728469862325
  N   2.36033139800804      0.40523410934735      0.19332018619404
  H   2.52594766647094      1.27570471053524      0.66642289941604
  C   3.48559259441369     -0.43534712520322     -0.15851735237354
  H   4.03658585219920     -0.74444741291233      0.72755300643425
  H   4.16185759105685      0.07881438252342     -0.83851881089763
  H   3.08506479029364     -1.31371880161629     -0.65431671083497
  C   -1.99551371341567     -0.90179333309111      1.15295834378581
  H   -2.84910186461394     -1.56850658516953      1.19894559342842
  H   -1.96458095636235     -0.29177196607711      2.05473572927912
  H   -1.08047709689607     -1.48809117610203      1.09435018988794
