19
0 1
  C   -0.28915310494952     -0.80111627027134      0.50193635179398
  H   -0.08634217505855     -0.19600710734546      1.38323819079917
  H   -0.24620741374784     -1.85323730615478      0.78372115343785
  N   0.66585799880480     -0.46233718146905     -0.53403519800338
  H   0.46843509877065     -0.79585652099682     -1.46692668089623
  C   -1.70680472910291     -0.54940689838130      0.00556792766688
  O   -2.45775941982875     -1.47890311857706     -0.25921620868176
  C   1.98689038077647     -0.14152227338390     -0.34282893891228
  O   2.76887362393954     -0.09929037848312     -1.28010954761139
  N   -2.06188244753505      0.75144690469900     -0.16112777264685
  H   -3.01282621925413      0.87863409140461     -0.46853300084182
  C   -1.29997327444834      1.91053424314449      0.25622296976090
  H   -1.71185300208758      2.78942900457028     -0.23130661085242
  H   -0.26424391634709      1.81177866728768     -0.05646722201935
  H   -1.33944057973259      2.07035585684340      1.33496575309791
  C   2.39821200575407      0.18615184336657      1.07322438984787
  H   3.44166473230406      0.47929458854750      1.05452033893811
  H   2.27809259209184     -0.67812745131187      1.72511611707380
  H   1.80176584965092      1.00002630651120      1.48403998804902
