   17
0 1
   C    -0.352075   -1.826162    0.000000
   C     0.810249   -0.840841    0.000000
   C     0.418936    0.641745    0.000000
   C    -0.352075    1.035874    1.255404
   C    -0.352075    1.035874   -1.255404
   H    -0.982560   -1.707005   -0.880005
   H    -0.982560   -1.707005    0.880005
   H     0.014926   -2.851178    0.000000
   H     1.438155   -1.031753   -0.873065
   H     1.438155   -1.031753    0.873065
   H     1.355113    1.206572    0.000000
   H    -0.515256    2.112522    1.289089
   H     0.187272    0.750824    2.158708
   H    -1.331514    0.558244    1.285697
   H     0.187272    0.750824   -2.158708
   H    -0.515256    2.112522   -1.289089
   H    -1.331514    0.558244   -1.285697
