   17
0 1
   C     0.000000    1.808124   -0.717838
   C     0.825872    0.986309    0.261451
   C     0.000000    0.000000    1.084557
   C    -0.825872   -0.986309    0.261451
   C     0.000000   -1.808124   -0.717838
   H     0.611638    2.555076   -1.221035
   H    -1.603097   -0.447498   -0.283961
   H    -1.350058   -1.655826    0.944973
   H    -0.809965    2.330888   -0.207584
   H    -0.448243    1.180303   -1.487820
   H    -0.671577    0.559634    1.740078
   H     0.671577   -0.559634    1.740078
   H     1.603097    0.447498   -0.283961
   H     1.350058    1.655826    0.944973
   H    -0.611638   -2.555076   -1.221035
   H     0.448243   -1.180303   -1.487820
   H     0.809965   -2.330888   -0.207584
