17
0 1
   C     2.425136   -0.172213    0.121373
   C     0.983846   -0.357764   -0.328460
   C     0.048776    0.700390    0.243894
   C    -1.392313    0.602706   -0.247565
   C    -2.105531   -0.675511    0.171707
   H     3.077931   -0.936453   -0.297359
   H    -1.404865    0.686415   -1.337100
   H    -1.950435    1.461819    0.128097
   H     2.505994   -0.226164    1.207218
   H     2.810120    0.799659   -0.187903
   H     0.443540    1.687873   -0.006841
   H     0.061911    0.637319    1.336089
   H     0.932761   -0.325218   -1.419757
   H     0.641329   -1.352014   -0.037382
   H    -3.147237   -0.667129   -0.145094
   H    -1.640284   -1.559507   -0.261597
   H    -2.090248   -0.792252    1.255929
