   23
0 1
   C     1.955718    0.424888    0.992382
   C     0.858320    0.036855    0.001783
   C     0.522204    1.244516   -0.871200
   C     1.377098   -1.096301   -0.884143
   C    -0.366575   -0.433092    0.808320
   C    -1.648911   -0.721694    0.016848
   C    -2.644282    0.432543    0.015151
   H     1.635582    1.251958    1.626835
   H     2.861973    0.732942    0.470023
   H     2.210950   -0.414827    1.639920
   H     1.412470    1.595953   -1.393427
   H     0.137516    2.070236   -0.271529
   H    -0.225340    0.995169   -1.624474
   H     2.263981   -0.778163   -1.432807
   H     0.633844   -1.410734   -1.616110
   H     1.647685   -1.965913   -0.284344
   H    -0.586705    0.322245    1.568236
   H    -0.063531   -1.327933    1.356574
   H    -1.400087   -0.989503   -1.011799
   H    -2.139799   -1.599772    0.437095
   H    -2.213536    1.336661   -0.411457
   H    -2.959769    0.668634    1.031632
   H    -3.536661    0.186760   -0.559214
