   23
0 1
   C    -2.151415   -0.529820   -0.496097
   C    -0.816608    0.028703    0.003134
   C    -0.739857    1.498267   -0.417274
   C    -0.777088   -0.075157    1.526635
   C     0.306755   -0.812311   -0.640023
   C     1.701484   -0.794747   -0.013950
   C     2.438821    0.538193   -0.020667
   H    -2.196928   -0.510715   -1.585734
   H    -2.986856    0.058568   -0.115499
   H    -2.289807   -1.561733   -0.172532
   H    -1.583045    2.053356   -0.004069
   H    -0.781752    1.591029   -1.503093
   H     0.171684    1.980800   -0.075397
   H    -1.637096    0.431254    1.965407
   H     0.121840    0.382992    1.939115
   H    -0.801793   -1.116731    1.849946
   H     0.383246   -0.527187   -1.693575
   H    -0.026853   -1.853402   -0.637493
   H     1.643989   -1.170299    1.009569
   H     2.302839   -1.524317   -0.559499
   H     2.013544    1.245404    0.689135
   H     2.409759    1.001997   -1.007061
   H     3.484673    0.400215    0.250238

