   23
0 1
   C    -2.147828   -0.684514    0.000000
   C    -0.619404   -0.699046    0.000000
   C    -0.131393   -1.433598    1.248484
   C    -0.131393   -1.433598   -1.248484
   C    -0.131393    0.759244    0.000000
   C     1.375913    0.982868    0.000000
   C     1.733337    2.462274    0.000000
   H    -2.532934   -0.171255    0.881723
   H    -2.547101   -1.699120    0.000000
   H    -2.532934   -0.171255   -0.881723
   H    -0.545653   -2.441444    1.285912
   H    -0.440971   -0.911208    2.154585
   H     0.953958   -1.523112    1.265068
   H    -0.545653   -2.441444   -1.285912
   H     0.953958   -1.523112   -1.265068
   H    -0.440971   -0.911208   -2.154585
   H    -0.559237    1.260888    0.873692
   H    -0.559237    1.260888   -0.873692
   H     1.821881    0.504879    0.873596
   H     1.821881    0.504879   -0.873596
   H     1.327250    2.962888    0.879066
   H     1.327250    2.962888   -0.879066
   H     2.811484    2.614061    0.000000
