8 
0 1
C      0.000000      0.665900     -1.163992
H      0.922200      1.231634     -1.163992
H     -0.922200      1.231634     -1.163992
C      0.000000     -0.665900     -1.163992
H      0.922200     -1.231634     -1.163992
H     -0.922200     -1.231634     -1.163992
F      0.000000      0.000000      1.954208
H      0.000000      0.000000      1.036008
