24 
0 1
C      0.000000      1.950000      1.391500
H      0.000000      1.950000      2.471500
C      1.205074      1.950000      0.695750
H      2.140382      1.950000      1.235750
C      1.205074      1.950000     -0.695750
H      2.140382      1.950000     -1.235750
C      0.000000      1.950000     -1.391500
H      0.000000      1.950000     -2.471500
C     -1.205074      1.950000     -0.695750
H     -2.140382      1.950000     -1.235750
C     -1.205074      1.950000      0.695750
H     -2.140382      1.950000      1.235750
C     -1.205074     -1.950000     -0.695750
H     -2.140382     -1.950000     -1.235750
C      0.000000     -1.950000     -1.391500
H      0.000000     -1.950000     -2.471500
C      1.205074     -1.950000     -0.695750
H      2.140382     -1.950000     -1.235750
C      1.205074     -1.950000      0.695750
H      2.140382     -1.950000      1.235750
C      0.000000     -1.950000      1.391500
H      0.000000     -1.950000      2.471500
C     -1.205074     -1.950000      0.695750
H     -2.140382     -1.950000      1.235750
