11 
0 1
C      0.000000      2.584615      0.000000
H      1.025759      2.947276      0.000000
H     -0.512880      2.947276     -0.888334
H     -0.512880      2.947276      0.888334
H      0.000000      1.496633      0.000000
C      0.000000     -1.615385      0.665900
H     -0.922200     -1.615385      1.231634
H      0.922200     -1.615385      1.231634
C      0.000000     -1.615385     -0.665900
H     -0.922200     -1.615385     -1.231634
H      0.922200     -1.615385     -1.231634
