9 
0 1
C      0.000000      0.000000     -1.993520
H      0.000000      0.000000     -0.905538
H      0.000000     -1.025759     -2.356181
H     -0.888334      0.512880     -2.356181
H      0.888334      0.512880     -2.356181
N      0.000000      0.000000      1.906480
H      0.000000      0.969936      2.196615
H      0.839989     -0.484968      2.196615
H     -0.839989     -0.484968      2.196615
