10 
0 1
Si      0.000000      0.000000      1.357108
H      0.000000      1.397458      0.864404
H      1.210234     -0.698729      0.864404
H     -1.210234     -0.698729      0.864404
H      0.000000      0.000000      2.838879
C      0.000000      0.000000     -2.442892
H      0.000000      1.026075     -2.081127
H     -0.888607     -0.513037     -2.081127
H      0.888607     -0.513038     -2.081127
H      0.000000      0.000000     -3.530874
