13 
0 1
O      1.353117      1.938272      0.472313
C      2.036975      0.786504      0.149549
H      1.784285      2.348749      1.229711
C      1.590403      0.069686     -0.957415
C      2.241737     -1.106977     -1.312811
C      3.331567     -1.566560     -0.574864
C      3.769684     -0.839690      0.528644
C      3.122484      0.338350      0.896049
H      0.744551      0.436798     -1.521858
H      1.892146     -1.664973     -2.170184
H      3.833023     -2.481154     -0.856667
H      4.613763     -1.185010      1.109263
H      3.459885      0.903038      1.756949
