10 
0 1
C     -0.338003      2.080061      1.130045
C      0.854025      1.359347      1.130631
N      1.470179      0.990760      0.000000
C      0.854025      1.359347     -1.130631
C     -0.338003      2.080061     -1.130045
N     -0.952306      2.452884      0.000000
H     -0.810376      2.364303      2.061864
H      1.320858      1.067061      2.062399
H      1.320858      1.067061     -2.062399
H     -0.810376      2.364303     -2.061864
