17
0 1
C      2.533549     0.239991     7.214372
H      2.568133     0.839798     6.305047
H      2.564052     0.923197     8.063117
H      3.434229    -0.371506     7.244581
C      1.271722    -0.611896     7.253676
H      1.266279    -1.221624     8.160173
H      1.270592    -1.311250     6.414095
C     -0.000053     0.224203     7.208060
H     -0.000208     0.926513     8.047044
H      0.000024     0.832979     6.298990
C     -1.271814    -0.611939     7.253331
H     -1.266431    -1.222049     8.159582
H     -1.270707    -1.310962     6.413468
C     -2.533533     0.240107     7.214354
H     -2.567726     0.840641     6.305477
H     -3.434335    -0.371191     7.243867
H     -2.564072     0.922693     8.063615
