17
0 1
C      2.533553     0.266559     5.910228
H      2.568137     0.866366     5.000902
H      2.564056     0.949766     6.758973
H      3.434233    -0.344938     5.940437
C      1.271727    -0.585328     5.949532
H      1.266283    -1.195056     6.856029
H      1.270596    -1.284682     5.109951
C     -0.000048     0.250771     5.903916
H     -0.000203     0.953081     6.742900
H      0.000028     0.859547     4.994846
C     -1.271809    -0.585371     5.949187
H     -1.266427    -1.195481     6.855437
H     -1.270703    -1.284394     5.109323
C     -2.533528     0.266675     5.910209
H     -2.567722     0.867209     5.001333
H     -3.434330    -0.344623     5.939723
H     -2.564068     0.949261     6.759471
