17
0 1
C     -0.787130     0.145436     8.795066
C      0.635683    -0.323530     8.501666
H      0.820122    -0.362859     7.427146
H      1.367117     0.354142     8.944402
H      0.807947    -1.320536     8.909787
C     -0.993526     1.541997     8.214235
H     -2.005490     1.898983     8.411083
H     -0.292608     2.253069     8.653957
H     -0.840417     1.542194     7.134093
C     -1.007424     0.185612    10.304919
H     -2.018640     0.519889    10.540993
H     -0.304912     0.870561    10.781758
H     -0.866861    -0.802908    10.744371
C     -1.783592    -0.822342     8.161919
H     -1.654666    -1.829317     8.561498
H     -2.809481    -0.508569     8.360307
H     -1.648888    -0.869316     7.080343
