17
0 1
C     -0.425969     0.078723     6.316134
C      0.996843    -0.390243     6.022734
H      1.181283    -0.429572     4.948214
H      1.728278     0.287430     6.465470
H      1.169107    -1.387249     6.430855
C     -0.632366     1.475285     5.735303
H     -1.644329     1.832270     5.932151
H      0.068553     2.186356     6.175025
H     -0.479257     1.475481     4.655161
C     -0.646263     0.118899     7.825987
H     -1.657480     0.453176     8.062061
H      0.056249     0.803848     8.302826
H     -0.505700    -0.869621     8.265439
C     -1.422432    -0.889054     5.682987
H     -1.293506    -1.896030     6.082566
H     -2.448321    -0.575282     5.881375
H     -1.287727    -0.936029     4.601411
