17
0 1
C     -0.404138     0.074691     6.166290
C      1.018675    -0.394275     5.872890
H      1.203114    -0.433605     4.798370
H      1.750109     0.283397     6.315626
H      1.190938    -1.391281     6.281011
C     -0.610535     1.471252     5.585459
H     -1.622498     1.828238     5.782307
H      0.090384     2.182324     6.025181
H     -0.457426     1.471449     4.505317
C     -0.624432     0.114867     7.676143
H     -1.635649     0.449144     7.912217
H      0.078080     0.799816     8.152982
H     -0.483869    -0.873653     8.115595
C     -1.400601    -0.893087     5.533143
H     -1.271675    -1.900062     5.932722
H     -2.426490    -0.579314     5.731531
H     -1.265896    -0.940061     4.451567
