17
0 1
C      0.382522    -0.070607     0.766896
C     -1.040639     0.396811     1.060936
H     -1.771575    -0.281500     0.618330
H     -1.224718     0.435735     2.135519
H     -1.214066     1.393724     0.653091
C      0.590847    -1.466818     1.347978
H      1.602914    -1.822950     1.150103
H      0.438969    -1.466746     2.428287
H     -0.109919    -2.178684     0.909314
C      1.378269     0.898435     1.399149
H      2.404394     0.585441     1.200734
H      1.243781     0.945974     2.480710
H      1.248373     1.905023     0.998951
C      0.601961    -0.111034    -0.743097
H      0.459212     0.877039    -1.182898
H      1.613694    -0.443459    -0.979672
H     -0.099531    -0.797550    -1.219221
