17
0 1
C     -2.533309    -0.294879     0.713149
H     -2.563627    -0.977082    -0.136423
H     -2.566978    -0.895876     1.621732
H     -3.434426     0.315957     0.684104
C     -1.271885     0.557655     0.674355
H     -1.271026     1.256566     1.514319
H     -1.266633     1.167896    -0.231827
C     -0.000135    -0.278418     0.719603
H     -0.000159    -0.887230     1.628637
H     -0.000365    -0.980714    -0.119404
C      1.271895     0.557382     0.674061
H      1.270972     1.256633     1.513705
H      1.266636     1.167183    -0.232387
C      2.533404    -0.294942     0.713280
H      2.563919    -0.977774    -0.135778
H      3.434310     0.316254     0.683599
H      2.567558    -0.895209     1.622329
