17
0 1
C      2.533556     0.288773     4.819828
H      2.568141     0.888579     3.910503
H      2.564060     0.971979     5.668573
H      3.434237    -0.322725     4.850037
C      1.271730    -0.563115     4.859132
H      1.266286    -1.172842     5.765629
H      1.270600    -1.262468     4.019551
C     -0.000045     0.272984     4.813516
H     -0.000200     0.975294     5.652500
H      0.000032     0.881761     3.904446
C     -1.271806    -0.563158     4.858787
H     -1.266423    -1.173267     5.765038
H     -1.270699    -1.262180     4.018924
C     -2.533525     0.288889     4.819810
H     -2.567718     0.889422     3.910933
H     -3.434327    -0.322410     4.849323
H     -2.564064     0.971475     5.669071
