11
0 1
N      0.374646    -0.000195     7.036388
C      1.245314    -0.005808     6.016975
H      2.293171    -0.004560     6.291277
C      0.871929    -0.012876     4.675147
H      1.619389    -0.017040     3.894047
C     -0.484120    -0.014290     4.362731
H     -0.813848    -0.019745     3.332450
C     -1.402223    -0.008575     5.407901
H     -2.466673    -0.009424     5.219165
C     -0.926619    -0.001657     6.716860
H     -1.618803     0.002926     7.550051
