11
0 1
N      0.415056     0.000606     6.899620
C      1.285724    -0.005007     5.880207
H      2.333580    -0.003758     6.154510
C      0.912338    -0.012075     4.538379
H      1.659799    -0.016239     3.757279
C     -0.443711    -0.013489     4.225963
H     -0.773439    -0.018944     3.195682
C     -1.361814    -0.007774     5.271133
H     -2.426264    -0.008623     5.082397
C     -0.886210    -0.000856     6.580092
H     -1.578394     0.003727     7.413283
