11
0 1
N     -0.923132    -1.846283     7.243215
C     -1.855610    -0.885654     7.317066
H     -2.858399    -1.216609     7.559259
C     -1.593607     0.465414     7.107687
H     -2.392165     1.189920     7.185958
C     -0.294179     0.854656     6.797418
H     -0.052195     1.893654     6.621547
C      0.685380    -0.128242     6.714057
H      1.707681     0.118503     6.465620
C      0.322900    -1.453380     6.947250
H      1.066761    -2.238935     6.890801
