11
0 1
N      0.255110    -0.002566     7.440965
C      1.125778    -0.008178     6.421552
H      2.173635    -0.006930     6.695855
C      0.752392    -0.015246     5.079724
H      1.499853    -0.019410     4.298625
C     -0.603656    -0.016660     4.767309
H     -0.933385    -0.022116     3.737027
C     -1.521759    -0.010945     5.812479
H     -2.586210    -0.011795     5.623743
C     -1.046156    -0.004027     7.121437
H     -1.738339     0.000556     7.954629
