11
0 1
N     -0.619655    -1.588777     4.594226
C     -1.552133    -0.628147     4.668077
H     -2.554922    -0.959102     4.910270
C     -1.290130     0.722921     4.458698
H     -2.088688     1.447427     4.536969
C      0.009297     1.112162     4.148429
H      0.251282     2.151161     3.972558
C      0.988857     0.129264     4.065068
H      2.011158     0.376010     3.816631
C      0.626377    -1.195873     4.298261
H      1.370238    -1.981428     4.241812
