11
0 1
N     -0.483956    -1.473633     3.409739
C     -1.416435    -0.513004     3.483590
H     -2.419224    -0.843959     3.725783
C     -1.154432     0.838064     3.274211
H     -1.952989     1.562570     3.352482
C      0.144996     1.227306     2.963942
H      0.386980     2.266304     2.788071
C      1.124555     0.244408     2.880581
H      2.146856     0.491153     2.632144
C      0.762075    -1.080730     3.113774
H      1.505936    -1.866285     3.057325
