17
0 1
C      0.171105     0.506641     4.818915
C      1.617354     0.685428     4.363954
H      2.033210     1.618706     4.747377
H      2.240753    -0.135187     4.722808
H      1.677963     0.704820     3.275020
C      0.116714     0.475270     6.343781
H     -0.909076     0.347849     6.692869
H      0.712120    -0.350417     6.736335
H      0.505008     1.403154     6.766686
C     -0.378275    -0.802851     4.258619
H     -1.413149    -0.953126     4.571291
H      0.208182    -1.651825     4.614431
H     -0.349495    -0.803304     3.168305
C     -0.670268     1.671213     4.302710
H     -0.648727     1.707243     3.212711
H     -1.710057     1.567443     4.617192
H     -0.294615     2.621907     4.684817
