12
0 1
C      2.253699     1.107262     4.471095
H      2.898544     1.973446     4.534846
C      2.799652    -0.173889     4.532615
H      3.867859    -0.302036     4.645359
C      1.968003    -1.289489     4.453965
H      2.391085    -2.283842     4.503618
C      0.591601    -1.123854     4.309248
H     -0.053501    -1.989264     4.241615
C      0.046042     0.156379     4.245282
H     -1.020587     0.284208     4.122103
C      0.877318     1.271659     4.327353
H      0.453794     2.265564     4.274984
