12
0 1
C      0.496324     0.648464     6.981068
H      0.618450     0.873948     5.930642
C     -0.594758    -0.106434     7.408405
H     -1.315262    -0.462949     6.684710
C     -0.755458    -0.400560     8.761355
H     -1.602565    -0.986528     9.091602
C      0.176425     0.060494     9.689849
H      0.052531    -0.167472    10.739856
C      1.268010     0.815596     9.264608
H      1.991129     1.173429     9.984991
C      1.426814     1.109081     7.911117
H      2.274072     1.695156     7.581070
