17
0 1
C      0.164439     0.501315     4.984031
C      1.610688     0.680103     4.529070
H      2.026544     1.613381     4.912493
H      2.234087    -0.140513     4.887924
H      1.671297     0.699494     3.440135
C      0.110048     0.469944     6.508896
H     -0.915742     0.342524     6.857984
H      0.705454    -0.355743     6.901450
H      0.498342     1.397829     6.931802
C     -0.384941    -0.808177     4.423735
H     -1.419815    -0.958452     4.736407
H      0.201516    -1.657150     4.779546
H     -0.356161    -0.808629     3.333421
C     -0.676934     1.665887     4.467826
H     -0.655393     1.701917     3.377827
H     -1.716723     1.562117     4.782308
H     -0.301281     2.616581     4.849933
