12
0 1
C      0.242773     0.276949     4.810645
H      0.364900     0.502433     3.760219
C     -0.848308    -0.477949     5.237981
H     -1.568813    -0.834464     4.514287
C     -1.009008    -0.772075     6.590931
H     -1.856116    -1.358043     6.921179
C     -0.077126    -0.311021     7.519425
H     -0.201019    -0.538988     8.569433
C      1.014460     0.444081     7.094185
H      1.737579     0.801914     7.814568
C      1.173263     0.737566     5.740694
H      2.020521     1.323640     5.410647
