12
0 1
C      0.134573     0.118408     3.884433
H      0.256699     0.343891     2.834006
C     -0.956509    -0.636491     4.311769
H     -1.677013    -0.993005     3.588075
C     -1.117209    -0.930616     5.664719
H     -1.964316    -1.516585     5.994967
C     -0.185326    -0.469563     6.593213
H     -0.309220    -0.697529     7.643221
C      0.906259     0.285539     6.167973
H      1.629378     0.643372     6.888355
C      1.065063     0.579024     4.814482
H      1.912321     1.165099     4.484434
