17
0 1
C      0.045663     0.406422     7.926127
C      1.491912     0.585210     7.471165
H      1.907768     1.518488     7.854588
H      2.115311    -0.235406     7.830019
H      1.552521     0.604601     6.382231
C     -0.008729     0.375051     9.450992
H     -1.034519     0.247631     9.800080
H      0.586677    -0.450636     9.843546
H      0.379566     1.302936     9.873897
C     -0.503717    -0.903070     7.365831
H     -1.538591    -1.053345     7.678502
H      0.082739    -1.752043     7.721642
H     -0.474937    -0.903522     6.275516
C     -0.795710     1.570994     7.409921
H     -0.774169     1.607024     6.319922
H     -1.835499     1.467224     7.724404
H     -0.420057     2.521688     7.792028
