12
0 1
C      0.712645     1.120996     0.060541
H      1.357842     1.986399     0.127737
C      1.258236    -0.159252     0.124234
H      2.324954    -0.287100     0.246743
C      0.426885    -1.274527     0.042650
H      0.850445    -2.268433     0.094750
C     -0.949578    -1.110074    -0.100314
H     -1.594456    -1.976274    -0.163713
C     -1.495526     0.171051    -0.161546
H     -2.563783     0.299221    -0.273703
C     -0.663828     1.286643    -0.083401
H     -1.086901     2.281000    -0.132886
