12
0 1
C      0.189643     0.199100     4.355846
H      0.311770     0.424584     3.305420
C     -0.901438    -0.555798     4.783182
H     -1.621943    -0.912312     4.059488
C     -1.062138    -0.849924     6.136132
H     -1.909246    -1.435892     6.466380
C     -0.130256    -0.388870     7.064626
H     -0.254149    -0.616836     8.114634
C      0.961330     0.366232     6.639386
H      1.684449     0.724065     7.359769
C      1.120133     0.659717     5.285895
H      1.967391     1.245792     4.955847
