12
0 1
C      2.573973     1.104257     5.387308
H      3.218818     1.970441     5.451059
C      3.119926    -0.176894     5.448828
H      4.188133    -0.305041     5.561572
C      2.288277    -1.292494     5.370177
H      2.711359    -2.286847     5.419831
C      0.911875    -1.126859     5.225461
H      0.266773    -1.992269     5.157828
C      0.366315     0.153374     5.161495
H     -0.700313     0.281203     5.038316
C      1.197592     1.268654     5.243566
H      0.774068     2.262559     5.191197
