12
0 1
C      0.153204     0.145707     4.043920
H      0.275330     0.371191     2.993493
C     -0.937878    -0.609191     4.471256
H     -1.658382    -0.965705     3.747562
C     -1.098578    -0.903317     5.824206
H     -1.945685    -1.489285     6.154454
C     -0.166695    -0.442263     6.752700
H     -0.290588    -0.670229     7.802708
C      0.924890     0.312839     6.327460
H      1.648009     0.670672     7.047843
C      1.083694     0.606324     4.973969
H      1.930952     1.192399     4.643921
