17
0 1
C      0.138494     0.480587     5.626686
C      1.584743     0.659375     5.171724
H      2.000600     1.592653     5.555147
H      2.208142    -0.161241     5.530578
H      1.645352     0.678766     4.082790
C      0.084103     0.449216     7.151551
H     -0.941687     0.321796     7.500639
H      0.679509    -0.376471     7.544105
H      0.472397     1.377101     7.574456
C     -0.410886    -0.828905     5.066389
H     -1.445759    -0.979180     5.379061
H      0.175571    -1.677878     5.422201
H     -0.382106    -0.829357     3.976075
C     -0.702879     1.645159     5.110480
H     -0.681338     1.681190     4.020481
H     -1.742668     1.541390     5.424963
H     -0.327226     2.595854     5.492587
