11
0 1
N      2.128430    -1.212863     0.015176
C      2.466866    -0.400519    -0.996537
H      1.924199    -0.545057    -1.921918
C      3.438196     0.591615    -0.896170
H      3.663048     1.215955    -1.749020
C      4.099036     0.761156     0.316095
H      4.856890     1.523394     0.432479
C      3.758903    -0.073806     1.375218
H      4.241491     0.016656     2.337918
C      2.775121    -1.038595     1.176034
H      2.489037    -1.702343     1.982645
