11
0 1
N      2.358641    -1.260257     0.031331
C      2.697077    -0.447913    -0.980381
H      2.154410    -0.592451    -1.905763
C      3.668407     0.544221    -0.880014
H      3.893259     1.168561    -1.732865
C      4.329247     0.713762     0.332250
H      5.087101     1.476000     0.448634
C      3.989114    -0.121200     1.391373
H      4.471702    -0.030738     2.354074
C      3.005332    -1.085989     1.192190
H      2.719248    -1.749737     1.998801
