11
0 1
N      2.243584    -1.236570     0.023257
C      2.582021    -0.424226    -0.988456
H      2.039353    -0.568764    -1.913837
C      3.553350     0.567908    -0.888089
H      3.778202     1.192248    -1.740939
C      4.214190     0.737449     0.324176
H      4.972044     1.499687     0.440560
C      3.874057    -0.097513     1.383299
H      4.356646    -0.007051     2.346000
C      2.890276    -1.062302     1.184115
H      2.604191    -1.726050     1.990726
