11
0 1
N      2.589048    -1.307691     0.047501
C      2.927484    -0.495347    -0.964212
H      2.384817    -0.639885    -1.889593
C      3.898813     0.496787    -0.863845
H      4.123666     1.121127    -1.716696
C      4.559653     0.666328     0.348420
H      5.317507     1.428566     0.464804
C      4.219520    -0.168634     1.407543
H      4.702109    -0.078172     2.370243
C      3.235739    -1.133423     1.208359
H      2.949654    -1.797171     2.014970
