7
0 1
N     -0.541059     0.029576    -0.208995
H      0.055553    -0.786118    -0.130293
H     -1.469669    -0.274708     0.053143
C     -0.078799     1.042390     0.738459
H     -0.720153     1.919414     0.671980
H     -0.050758     0.723823     1.785515
H      0.926431     1.356604     0.461999
