11
0 1
N      1.384790    -0.000202     0.123592
C      0.688580    -1.138449     0.089144
H      1.274649    -2.060621     0.121031
C     -0.703216    -1.195529     0.014076
H     -1.211433    -2.159694    -0.010507
C     -1.414545    -0.000113    -0.026686
H     -2.504053    -0.000063    -0.084522
C     -0.703180     1.195261     0.014738
H     -1.211342     2.159464    -0.009345
C      0.688598     1.138084     0.089882
H      1.274708     2.060211     0.122435
