12
0 1
C     -0.433644    -0.116606     2.418020
H     -0.822660     0.671630     3.073685
H      0.612398     0.100985     2.170143
H     -0.499139    -1.061606     2.972644
C     -1.324118    -0.208168     1.199157
O     -2.528057    -0.424571     1.300690
N     -0.691820    -0.033062     0.013881
H      0.318814     0.095060     0.011170
C     -1.394894    -0.095192    -1.241739
H     -2.460089    -0.228702    -1.026020
H     -1.255649     0.830470    -1.817582
H     -1.048547    -0.941065    -1.855046
