8
0 1
C     -0.209085    -0.267713    -0.001723
C      1.084538     0.074799    -0.000747
C      1.084567     0.074817     1.569280
C     -0.209060    -0.267680     1.570313
H     -0.954181    -0.465199    -0.770607
H      1.831472     0.280143    -0.764696
H      1.831530     0.280180     2.333196
H     -0.954130    -0.465136     2.339229
