10
0 1
C     -0.099054     3.428426     1.565674
C      1.310491     3.428521     1.917131
C     -1.092978     3.416669     2.465250
C      2.304417     3.416331     1.017562
H     -2.139255     3.414648     2.160928
H      3.350694     3.414487     1.321886
H      1.547680     3.427895     2.984714
H     -0.336243     3.427253     0.498093
H      2.095487     3.405635    -0.053749
H     -0.884049     3.406500     3.536567
