12
0 1
C      0.775391     3.909489    -0.319755
C     -0.319733     3.909485     0.775345
C      0.775367     3.909491     1.870469
C      1.870491     3.909484     0.775369
H      0.775398     4.796955    -0.964619
H      0.775398     3.023550    -0.966533
H     -0.966500     3.023538     0.775339
H     -0.964609     4.796942     0.775338
H      0.775360     3.023553     2.517248
H      0.775360     4.796957     2.515333
H      2.517258     3.023537     0.775377
H      2.515368     4.796941     0.775376
