15
0 1
C     -1.129484    -0.378922     5.014336
H     -1.449241    -0.166387     3.983141
H     -1.952089    -0.915562     5.504745
C      0.182695    -1.177193     5.008086
H      0.251822    -1.850782     4.144361
H      0.238781    -1.809489     5.904713
C      1.316857    -0.122152     5.026514
H      1.950714    -0.182897     4.132680
H      1.976663    -0.284898     5.889079
C      0.619872     1.247278     5.132824
H      0.502966     1.690737     4.133180
H      1.186276     1.965559     5.739576
C     -0.760643     0.930778     5.709132
H     -1.492833     1.732160     5.543145
H     -0.687050     0.768610     6.796093
