17
0 1
C     -2.541174    -0.388189     4.144859
H     -2.582185    -1.006424     3.235664
H     -2.590934    -1.069875     5.006282
H     -3.442304     0.239451     4.161841
C     -1.272563     0.451707     4.182242
H     -1.272482     1.078964     5.087864
H     -1.262188     1.148134     3.329208
C     -0.000070    -0.383774     4.155043
H     -0.000220    -1.079483     5.010990
H      0.000081    -1.019284     3.253395
C      1.272433     0.451680     4.182678
H      1.272188     1.078732     5.088442
H      1.262239     1.148312     3.329808
C      2.541032    -0.388234     4.145338
H      2.582194    -1.006252     3.236001
H      3.442175     0.239379     4.162640
H      2.590614    -1.070128     5.006605
