15
0 1
C      0.966643    -0.892993     1.123868
H      1.523629    -1.275849     0.258395
H      1.441452    -1.322148     2.015383
C      0.992239     0.655798     1.139849
H      1.493369     1.035753     0.239071
H      1.545214     1.056353     1.999101
C     -0.478919     1.097062     1.143274
H     -0.633740     2.066959     0.652889
H     -0.843661     1.193598     2.176922
C     -1.210408    -0.053970     0.454733
H     -1.048209    -0.001355    -0.633435
H     -2.294701    -0.045743     0.628239
C     -0.518165    -1.291225     1.027562
H     -0.676980    -2.193238     0.422541
H     -0.919433    -1.500313     2.029960
