12
0 1
N      0.610901    -0.854470     0.804447
H      0.372500    -1.808645     1.045934
C     -0.426129    -0.069204     0.284873
O     -1.532076    -0.551359     0.116621
C     -0.036659     1.302125    -0.000047
H     -0.777485     1.974599    -0.420057
C      1.221438     1.707145     0.274625
H      1.563567     2.724122     0.089917
N      2.152194     0.860131     0.810867
H      3.081538     1.178082     1.042187
C      1.888067    -0.461653     1.128698
O      2.715035    -1.190435     1.641373
