17
0 1
C     -0.369493     0.070118     5.921374
C      1.056136    -0.397674     5.625332
H      1.245160    -0.434512     4.543548
H      1.794853     0.282067     6.072643
H      1.233392    -1.403206     6.031931
C     -0.578530     1.470109     5.342326
H     -1.596677     1.831795     5.543332
H      0.127510     2.188118     5.782600
H     -0.428657     1.475739     4.253765
C     -0.588395     0.107407     7.434133
H     -1.607410     0.440363     7.677473
H      0.116596     0.798289     7.918027
H     -0.443789    -0.887695     7.878387
C     -1.367468    -0.899665     5.286943
H     -1.238514    -1.915327     5.686487
H     -2.402009    -0.587325     5.486990
H     -1.235819    -0.947944     4.197113
