12
0 1
N     -0.206713    -0.965435     0.515648
H     -0.225228    -1.974879     0.596683
C     -1.439877    -0.336764     0.294854
O     -2.455435    -1.001653     0.196917
C     -1.351878     1.112046     0.211200
H     -2.261976     1.676719     0.037381
C     -0.154221     1.716193     0.361198
H     -0.032475     2.797160     0.317119
N      0.991808     1.003283     0.584761
H      1.877735     1.464960     0.727910
C      1.024230    -0.376518     0.690458
O      2.047482    -0.992929     0.916411
