17
0 1
C      0.377012    -0.071418     0.811968
C     -1.048304     0.397316     1.108042
H     -1.787468    -0.281542     0.660127
H     -1.237524     0.433548     2.189810
H     -1.224680     1.403260     0.702085
C      0.585078    -1.471557     1.390991
H      1.602741    -1.834234     1.189317
H      0.435978    -1.476941     2.479657
H     -0.121951    -2.188933     0.951273
C      1.375662     0.897675     1.446404
H      2.409990     0.584252     1.246953
H      1.243578     0.946609     2.536152
H      1.247859     1.913279     1.046340
C      0.595810    -0.108951    -0.700799
H      0.451558     0.886167    -1.145129
H      1.614683    -0.442318    -0.944163
H     -0.109470    -0.799607    -1.184599
