17
0 1
C     -0.630502    -0.026691     4.736327
C     -1.962311     0.686136     4.972757
H     -2.656540     0.046618     5.535975
H     -1.817810     1.613249     5.545813
H     -2.443798     0.947405     4.019815
C      0.011183    -0.376356     6.079439
H      0.971136    -0.892143     5.935226
H      0.199700     0.528612     6.674622
H     -0.641636    -1.036715     6.667638
C      0.307505     0.893824     3.953564
H      1.272666     0.401652     3.768580
H      0.503184     1.819988     4.512402
H     -0.132965     1.175212     2.986740
C     -0.875299    -1.309369     3.939403
H     -1.367445    -1.094131     2.980635
H      0.071676    -1.831171     3.738524
H     -1.524308    -1.997691     4.498531
