17
0 1
C     -2.538579    -0.342437     4.216546
H     -2.556653    -1.009911     3.342196
H     -2.605071    -0.975826     5.113027
H     -3.441356     0.282515     4.181959
C     -1.271480     0.500295     4.231529
H     -1.288924     1.180613     5.097999
H     -1.244207     1.144043     3.338332
C      0.000039    -0.335522     4.271598
H      0.000006    -0.962540     5.179151
H      0.000071    -1.030648     3.416923
C      1.271554     0.500303     4.231625
H      1.288924     1.180628     5.098092
H      1.244350     1.144051     3.338424
C      2.538659    -0.342425     4.216754
H      2.556803    -1.009925     3.342421
H      3.441436     0.282528     4.182219
H      2.605084    -0.975794     5.113254
