15
0 1
N      0.279301     2.406839    -0.605752
C     -1.084857     2.445746    -0.551161
H     -1.659440     3.023029    -1.256090
N     -1.597712     1.717988     0.428754
C     -0.489725     1.171436     1.030191
C     -0.346137     0.291471     2.117234
N     -1.418709    -0.167777     2.810144
H     -1.238875    -0.959480     3.404758
H     -2.291873    -0.178822     2.307362
N      0.885763    -0.070076     2.491949
C      1.935235     0.407288     1.796802
H      2.906033     0.078841     2.145818
N      1.940978     1.224202     0.740220
C      0.695219     1.577986     0.406398
H      0.861007     2.829804    -1.310450
