20
0 1
C      3.414381     3.903354     5.373351
C      2.036903     3.914157     4.726627
C      2.088653     3.922902     3.204803
C      0.714680     3.925477     2.550308
C      0.766633     3.910818     1.028524
C     -0.610600     3.901859     0.381286
H     -0.541602     3.886563    -0.714614
H     -1.187573     3.019116     0.691565
H     -1.187560     4.792560     0.668137
H      1.334530     4.787220     0.678356
H      1.336862     3.029155     0.696746
H      3.345855     3.891765     6.469328
H      3.988757     3.018062     5.065576
H      3.993643     4.791546     5.083392
H      1.463984     3.035465     5.061797
H      1.471880     4.793648     5.073695
H      0.141870     3.052541     2.903134
H      0.151311     4.811411     2.886951
H      2.656669     3.045506     2.855308
H      2.656843     4.804476     2.864839
