13
0 1
O      1.324436     1.883570     0.389282
C      2.073455     0.766808     0.110559
H      1.658063     2.310376     1.184608
C      1.715109     0.022593    -1.011997
C      2.441561    -1.122180    -1.325241
C      3.517183    -1.523700    -0.532536
C      3.863486    -0.768813     0.585850
C      3.142823     0.378352     0.914654
H      0.871208     0.342463    -1.622487
H      2.160100    -1.707694    -2.200670
H      4.081348    -2.420918    -0.784916
H      4.701603    -1.071807     1.213946
H      3.414562     0.968745     1.792308
