13
0 1
C     -2.051809     0.727086    -0.125896
O     -1.381746     1.851980    -0.479404
H     -0.489693     1.846746    -0.097493
C     -1.487427    -0.270862     0.675792
C     -2.232195    -1.404047     0.997822
C     -3.535914    -1.556128     0.530230
C     -4.091438    -0.555702    -0.269272
C     -3.359383     0.580195    -0.598837
H     -0.465506    -0.164757     1.040616
H     -1.782099    -2.176875     1.622331
H     -4.113914    -2.443954     0.785438
H     -5.110947    -0.660592    -0.642998
H     -3.783545     1.367309    -1.221708
