12
0 1
C     -0.739060     0.507157    -1.208287
C     -1.427552     0.392931     0.000000
C     -0.739060     0.507157     1.208287
C      0.637353     0.735299     1.207993
C      1.325427     0.849282     0.000000
C      0.637354     0.735292    -1.207993
H     -1.276517     0.413443    -2.152417
H     -2.501825     0.207185     0.000000
H     -1.276517     0.413442     2.152417
H      1.175601     0.822527     2.152482
H      2.401682     1.025216     0.000000
H      1.175600     0.822528    -2.152482
