12
0 1
F     -2.181944    -2.047017    -0.305659
F     -2.745834     0.617920    -0.286375
C      0.106053    -1.592468     0.026377
C     -1.201894    -1.158781    -0.150598
C     -1.489323     0.200799    -0.142401
C     -0.468120     1.124873     0.040085
C      0.840775     0.691415     0.212708
C      1.127278    -0.668116     0.208310
F     -0.745641     2.425936     0.066110
F      1.816042     1.578053     0.387415
F      0.378651    -2.895693     0.044504
F      2.376830    -1.086618     0.390614
