16
0 1
H      0.803093    -0.516535     0.000011
N     -0.155763    -0.829668     0.000020
C     -0.556980    -2.142921     0.000050
C     -1.928082    -2.208077     0.000044
C     -2.406280    -0.855700     0.000011
C     -1.259807    -0.015386     0.000001
C     -1.355766     1.379100    -0.000024
C     -2.628196     1.932866    -0.000029
C     -3.779464     1.119554    -0.000036
C     -3.680401    -0.263716    -0.000020
H      0.178573    -2.940950     0.000105
H     -2.523203    -3.115293     0.000083
H     -0.464199     2.005454    -0.000002
H     -2.740392     3.017531    -0.000052
H     -4.762853     1.590691    -0.000037
H     -4.577624    -0.883675    -0.000076
