12
0 1
C     -0.000000     1.949471     1.394211
H     -0.000000     1.944804     2.484695
C      1.207370     1.949475     0.697084
H      2.151779     1.944815     1.242294
C      1.207370     1.949475    -0.697084
H      2.151779     1.944815    -1.242294
C      0.000000     1.949471    -1.394211
H      0.000000     1.944804    -2.484695
C     -1.207370     1.949475    -0.697084
H     -2.151779     1.944815    -1.242294
C     -1.207370     1.949475     0.697084
H     -2.151779     1.944815     1.242294
