8
0 1
C      0.724804    -0.173441     0.005228
N     -0.714025     0.185042     0.028218
H     -1.201654    -0.318562     0.770282
H     -0.838134     1.179010     0.224320
H     -1.220155    -0.065966    -0.976234
H      0.817597    -1.240427    -0.219313
H      1.190714     0.040034     0.971776
H      1.219719     0.408962    -0.777631
