10
0 1
C     -0.006632     0.160194     0.007214
N     -1.052531    -0.668518     0.103928
N     -0.020395     1.361123     0.558190
N      1.079853    -0.238834    -0.665104
H     -0.838678     1.664256     1.063669
H      1.133534    -1.146604    -1.097839
H      1.874898     0.374536    -0.746744
H     -1.041298    -1.583695    -0.317856
H      0.818106     2.010705     0.475646
H     -1.884153    -0.398009     0.604412
