7
0 1
N     -1.808687    -0.387995    -2.324234
C     -1.070090     0.287200    -3.409939
H     -1.818382    -1.393067    -2.493088
H     -1.508514     0.097109    -4.396981
H     -1.070628     1.368715    -3.231137
H     -0.032574    -0.065738    -3.415933
H     -2.787950    -0.106530    -2.353662
