9
0 1
S      0.667161    -1.192431    -0.000000
C     -0.492140    -1.377543     1.381180
C     -0.492140    -1.377543    -1.381180
H     -0.957907    -2.370867     1.361824
H      0.087287    -1.271768     2.305722
H     -1.259420    -0.593854     1.346915
H     -0.957907    -2.370867    -1.361824
H     -1.259420    -0.593854    -1.346915
H      0.087287    -1.271768    -2.305722
