12
0 1
C      0.714956    -0.609211    -1.208837
C      0.464364     0.763455    -1.209184
C      0.340095     1.450183     0.000478
C      0.465197     0.763315     1.209962
C      0.715898    -0.609314     1.209266
C      0.841866    -1.295012     0.000129
H      0.808830    -1.146121    -2.153561
H      0.360487     1.299003    -2.153484
H      0.143698     2.523185     0.000637
H      0.362002     1.298715     2.154415
H      0.810563    -1.146342     2.153854
H      1.040063    -2.367901    -0.000002
