7
0 1
C     -1.551982    -0.675760     0.000000
N     -0.954914     0.659547     0.000000
H     -2.654021    -0.681304    -0.000000
H     -1.200575    -1.224045    -0.882628
H     -1.200575    -1.224045     0.882628
H     -1.259412     1.185812    -0.813580
H     -1.259412     1.185812     0.813580
