10
0 1
C     -0.000032    -0.000000    -0.866898
N     -0.000001     0.000000    -2.202188
N     -0.000011    -1.146054    -0.190287
N     -0.000011     1.146054    -0.190287
H     -0.000004    -2.035701    -0.662847
H     -0.000004     2.035701    -0.662847
H     -0.000003    -1.114621     0.826547
H      0.000021     0.861556    -2.725275
H      0.000021    -0.861556    -2.725275
H     -0.000003     1.114621     0.826547
