10
0 1
Br     -0.005069     1.235827     0.000579
C     -1.151050    -1.432401     0.006252
N     -0.002541    -0.645120     0.000120
O     -2.293902    -1.042114     0.012579
O      2.290115    -1.034472    -0.012679
C      1.148540    -1.428587    -0.006465
C      0.669195    -2.849911    -0.004156
C     -0.666991    -2.852134     0.003195
H     -1.358109    -3.691395     0.006757
H      1.363068    -3.686889    -0.008223
