10
0 1
N      0.000000    -0.000000    -1.353676
O      0.000000     2.295148    -1.736836
O      0.000000    -2.295148    -1.736836
C      0.000000    -1.160080    -2.137241
C     -0.000000    -0.668388    -3.551483
C      0.000000     0.668388    -3.551483
H     -0.000000     1.358947    -4.391131
H     -0.000000    -1.358947    -4.391131
C      0.000000     1.160080    -2.137241
Br     -0.000000    -0.000000     0.482506
