10 
0 1
Co      0.169013     -0.067982     -0.000000
H      1.534089     -0.620055      0.000000
C      1.091645      1.458741     -0.000000
C      0.098969     -0.991385      1.525028
C      0.098969     -0.991385     -1.525028
C     -1.494664      0.607060      0.000000
O      1.733345      2.404820     -0.000000
O      0.110505     -1.599675      2.492844
O      0.110505     -1.599675     -2.492844
O     -2.551615      1.036072      0.000000
