7 
0 1
Cr     -0.000000     -0.000000     -0.000000
Cl      0.000000      0.000000     -2.204564
Cl      2.204564      0.000000      0.000000
Cl     -2.204564      0.000000      0.000000
Cl      0.000000      2.204564      0.000000
Cl      0.000000     -2.204564      0.000000
Cl      0.000000      0.000000      2.204564
