13 
0 1
Cr     -0.000000     -0.000000      0.000000
C     -0.000000     -0.000000      1.898008
C     -0.000000      1.898008     -0.000000
C     -1.898008     -0.000000     -0.000000
C     -0.000000     -1.898008     -0.000000
C     -0.000000     -0.000000     -1.898008
C      1.898008     -0.000000     -0.000000
O     -0.000000     -0.000000      3.042929
O     -3.042929     -0.000000      0.000000
O     -0.000000     -0.000000     -3.042929
O      3.042929     -0.000000      0.000000
O     -0.000000      3.042929      0.000000
O     -0.000000     -3.042929      0.000000
