7 
0 1
Cr     -0.000000     -0.000000     -0.000000
F      0.000000      0.000000     -1.717399
F      1.717399      0.000000      0.000000
F     -1.717399      0.000000      0.000000
F      0.000000      1.717399      0.000000
F      0.000000     -1.717399      0.000000
F      0.000000      0.000000      1.717399
