11 
0 1
Cr     -0.000000      0.000000      0.817018
O     -1.238848      0.121409      1.722315
O      1.238848     -0.121409      1.722315
O     -0.005235      1.806863      0.185284
O      0.005235     -1.806863      0.185284
N      0.842548      1.675467     -0.818971
N     -0.842548     -1.675467     -0.818972
O      1.248642      0.498820     -0.932332
O     -1.248642     -0.498820     -0.932332
O      1.135260      2.604016     -1.493737
O     -1.135260     -2.604016     -1.493737
