17 
0 1
Fe     -0.000001      0.000182      0.004454
C      0.000001      0.000213     -1.922910
C      0.000531     -1.386683     -1.576632
C     -1.201346      0.693317     -1.576916
C      1.200815      0.694238     -1.576911
H     -0.920750     -1.959413     -1.684891
H      0.922248     -1.958712     -1.684882
H     -1.236623      1.777512     -1.685433
H     -2.157633      0.181194     -1.685201
H      2.157494      0.182847     -1.685199
H      1.235263      1.778460     -1.685420
C     -0.000421      1.563223      0.856720
C      1.352646     -0.781817      0.857540
C     -1.352229     -0.782541      0.857540
O     -0.000524      2.583666      1.378369
O      2.235431     -1.292393      1.380339
O     -2.234902     -1.293296      1.380353
