11 
0 1
Fe      0.000000      0.000919     -0.000000
C      0.000000      1.795735      0.000000
C      1.553288     -0.897987     -0.000000
C     -1.553288     -0.897987      0.000000
C     -0.000000      0.001075      1.802717
C     -0.000000      0.001075     -1.802717
O      0.000000      2.941935     -0.000000
O      2.544584     -1.473412      0.000000
O     -2.544584     -1.473412      0.000000
O      0.000000      0.001030      2.945092
O      0.000000      0.001030     -2.945092
