12 
0 1
C     -1.288295      1.287834      0.373550
C     -1.288295     -1.287834      0.373550
C      1.288295     -1.287834      0.373550
C      1.288295      1.287834      0.373550
C     -0.000000     -0.000000     -1.687889
O     -2.084229     -2.081629      0.579434
O     -2.084229      2.081629      0.579434
O     -0.000000     -0.000000     -2.833551
O      2.084229      2.081629      0.579434
O      2.084229     -2.081629      0.579434
Mn      0.000000      0.000000      0.141688
H     -0.000000     -0.000000      1.709158
