9 
0 1
Ni     -0.000347      0.000355     -0.000240
C     -1.028690      1.488660     -0.210231
C      1.633944      0.279007     -0.753825
C      0.203436     -0.351479      1.774927
C     -0.808981     -1.415646     -0.811123
O     -1.672392      2.421080     -0.341936
O      0.330735     -0.571921      2.886794
O      2.658018      0.452267     -1.225280
O     -1.315752     -2.302373     -1.319005
