9 
0 1
Cl      2.524371      1.227544     -0.569162
O      0.115216      0.188630      1.207418
Cl     -0.317078      1.342221      0.423473
O      1.170951      2.210768      0.018998
O     -0.921995      1.020831     -0.863799
O     -0.966732      2.413259      1.169687
O      3.335048      2.317696     -1.098456
O      3.055014      0.574619      0.621703
O      1.940455      0.326691     -1.558851
