7 
0 1
Be      0.047861      1.077694     -0.000000
Br      1.865759      1.902935      0.000000
Br     -1.870865      1.659841     -0.000000
P      0.055344     -1.106552      0.000000
H      1.254495     -1.865469     -0.000000
H     -0.632259     -1.715999      1.080268
H     -0.632259     -1.715999     -1.080268
