7 
0 1
Be      0.049736      1.199590      0.000436
H      1.277445      1.780757     -0.000253
H     -1.298650      1.425020     -0.000229
P      0.093806     -1.029684      0.000089
H      1.222520     -1.896134     -0.000016
H     -0.628416     -1.621702      1.070160
H     -0.628364     -1.621396     -1.070187
