7 
0 1
Be      0.131204      0.933233      0.000001
Li      2.020745      2.393641     -0.000001
Li     -2.120097      1.774565      0.000001
P      0.091622     -1.180788      0.000000
H      1.187548     -2.133847      0.000001
H     -0.611474     -1.775177      1.087645
H     -0.611472     -1.775175     -1.087647
