8 
0 1
B      0.000000     -0.000000     -1.104116
P     -0.000000     -0.000000      0.818646
H     -0.626804     -1.085657      1.485891
H     -0.626804      1.085657      1.485891
H      1.253608      0.000000      1.485891
H      0.591779      1.024990     -1.390734
H     -1.183557      0.000000     -1.390733
H      0.591779     -1.024990     -1.390734
