7 
0 1
Br     -1.319952     -1.493876      0.000000
Br      0.000628      0.375981      0.000000
F      1.852729      2.454088     -0.000000
C      3.164122      1.971966     -0.000000
H      3.129140      0.875865     -0.000000
H      3.664858      2.342824      0.902055
H      3.664858      2.342824     -0.902055
