7 
0 1
Br      1.991086     -0.417953      0.000130
Br     -0.209700      0.343007     -0.000064
O     -2.641016      0.957256     -0.000231
P     -3.238102     -0.452146     -0.000005
H     -2.899925     -1.274063      1.111382
H     -2.899881     -1.274437     -1.111102
H     -4.660818     -0.477693     -0.000027
