17
Title goes here
N	1.3847901397	-0.0002023750	0.1235921946
C	0.6885796329	-1.1384489576	0.0891437403
H	1.2746492925	-2.0606209652	0.1210306548
C	-0.7032157574	-1.1955293995	0.0140764481
H	-1.2114328639	-2.1596944179	-0.0105067427
C	-1.4145446045	-0.0001132046	-0.0266858229
H	-2.5040527856	-0.0000630340	-0.0845216915
C	-0.7031798204	1.1952613068	0.0147382891
H	-1.2113417624	2.1594637259	-0.0093446463
C	0.6885980835	1.1380838841	0.0898818996
H	1.2747077430	2.0602113836	0.1224345015
C	0.0077776342	0.6663454841	3.4781223327
H	0.9191922944	1.2354589902	3.2892584526
H	-0.9030682613	1.2399037373	3.6582903771
C	0.0075868448	-0.6657272847	3.4789409884
H	0.9187804399	-1.2354104972	3.2908035352
H	-0.9034941716	-1.2386910515	3.6598855647
