8
-1 1
C	-1.4265094753	0.0300124327	-0.0117296756
C	0.1007677382	0.0468430197	-0.0106930001
H	-1.7657183343	-0.6754447103	0.7701384262
H	-1.7670395390	-0.3947498927	-0.9750534752
H	0.4730223455	0.4393752479	0.9477977114
H	0.5284273525	-0.9634946090	-0.1713978731
S	-2.1698315523	1.6680347731	0.2523236704
H	0.4708314648	0.7168337386	-0.8013857841
