7
-1 1
C	-1.2334598577	-0.1697014593	0.2510067121
C	-0.6570203667	1.0111411157	0.4860034053
H	-1.3000381519	-0.5685432484	-0.7638880178
H	-1.6581699336	-0.7818433377	1.0518292265
H	-0.2280441777	1.6291368588	-0.3143037841
H	-0.5940124949	1.4035746443	1.5053675939
Br	0.8738049826	3.1947554267	-2.2160151359
