8
-1 1
C	-1.4616215313	-0.1217136431	0.0616429847
C	0.0685480023	0.0190976397	0.0176074974
H	-1.9086742864	-0.3560233681	1.0453965074
H	-1.9191263977	-0.7891335382	-0.6920539161
H	0.6083844533	-0.1480959303	0.9746379466
H	0.5974480772	-0.5774403524	-0.7565987888
C	-1.4344584551	1.4005814486	-0.3169448024
N	-0.1065498624	1.4401377438	-0.3336874289
