10
0 1
C	0.0000946859	-0.6672305817	-2.0969310532
C	0.0001274897	0.6663612178	-2.0931776080
H	0.9295908199	-1.2392041698	-2.0969151368
H	-0.9292195859	-1.2393891101	-2.1050398742
H	-0.9293296550	1.2383498608	-2.0984266091
H	0.9295770058	1.2383768821	-2.0896194243
C	0.0015490525	0.0012955794	2.8584825754
C	-0.0019104421	0.0000581196	1.6490230540
H	-0.0053475933	-0.0013393868	0.5737356339
H	0.0048682218	0.0027215890	3.9298344423
