7
1 1
C	-1.3532662640	0.4809188631	0.1425986292
C	-0.0111889306	0.4978580790	0.1246586458
H	-1.9331272820	0.1257298040	-0.7139839170
H	-1.9149470540	0.7422068315	1.0434122329
H	0.5538753357	0.1561262792	-0.7472648581
H	0.5672341511	0.7733294264	1.0104871668
Na	-0.7055199562	2.9423507167	-0.8599078996
