18
Title goes here
N	-0.0465599985	-0.9866220570	0.0354643084
H	-0.0426993228	-1.9991277110	0.0604663134
C	-1.3045016932	-0.3691507847	-0.0046040708
O	-2.3174725222	-1.0463311780	-0.0130991910
C	-1.2446807815	1.0827899458	-0.0276962158
H	-2.1762098194	1.6377780453	-0.0734365262
C	-0.0456478734	1.7005436173	0.0251421184
H	0.0553014854	2.7847550973	0.0233237978
N	1.1264281315	0.9987288294	0.0896592000
H	2.0171463735	1.4670785054	0.1642949208
C	1.1876038914	-0.3841343063	0.1224118751
O	2.2364648470	-0.9930989101	0.2121439400
C	0.7316579730	0.0019170110	3.4072825639
H	1.2331687149	-0.8812152070	3.0079515756
H	1.3699060310	0.7624518467	3.8609065130
C	-0.5924593016	0.1465733553	3.3500092964
H	-1.2360961715	-0.6132072615	2.9034327741
H	-1.0894159524	1.0306071763	3.7530027539
