18 
0 1
C      0.156610     -0.203721     -0.000254
C      0.156791     -0.203696      1.504388
C      1.441960      0.010587      0.751909
H      0.015510     -1.154410     -0.512551
H     -0.284380      0.651978     -0.509595
H     -0.284077      0.652019      2.013806
H      0.015814     -1.154368      2.016750
H      1.871777      1.011288      0.751841
H      2.175723     -0.794229      0.751833
C      0.360538     -4.010591      0.752079
C      1.645696     -3.796302     -0.000418
C      1.645898     -3.796283      1.504225
H      1.786663     -2.845627     -0.512777
H      2.086558     -4.652014     -0.509846
H      2.086899     -4.651982      2.013556
H      1.787003     -2.845596      2.016522
H     -0.069277     -5.011293      0.752150
H     -0.373227     -3.205777      0.752169
