24 
0 1
C     -0.433644     -0.116606      2.418020
H     -0.822660      0.671630      3.073685
H      0.612398      0.100985      2.170143
H     -0.499139     -1.061606      2.972644
C     -1.324118     -0.208168      1.199157
O     -2.528057     -0.424571      1.300690
N     -0.691820     -0.033062      0.013881
H      0.318814      0.095060      0.011170
C     -1.394894     -0.095192     -1.241739
H     -2.460089     -0.228702     -1.026020
H     -1.255649      0.830470     -1.817582
H     -1.048547     -0.941065     -1.855046
C      1.939419     -2.362243      0.259159
H      2.550519     -3.267287      0.355855
H      1.312393     -2.443091     -0.636874
H      1.265597     -2.288106      1.121393
C      2.755029     -1.098904      0.170653
O      2.228622      0.006888      0.041134
N      4.097254     -1.250405      0.244634
H      4.463324     -2.182639      0.354775
C      5.017594     -0.138668      0.184502
H      4.427261      0.771317      0.041502
H      5.592181     -0.051141      1.116406
H      5.714583     -0.252142     -0.656216
