28 
0 1
C     -0.109568      0.092605      0.040713
C     -0.014321      0.078409      1.559288
C      1.420550      0.078565      2.070945
C      1.515794      0.092895      3.589519
H      2.560295      0.095794      3.928703
H      1.026769      0.984195      4.007958
H      1.025068     -0.789484      4.024599
H      1.944460     -0.805970      1.674905
H      1.949766      0.951959      1.658496
H     -1.154069      0.095267     -0.298474
H      0.379277      0.983973     -0.377794
H      0.381337     -0.789707     -0.394300
H     -0.538064     -0.806195      1.955393
H     -0.543702      0.951733      1.971675
C      2.029033      3.907041      3.247091
C      0.663504      3.921699      2.575935
C      0.742336      3.921766      1.054640
C     -0.623194      3.907216      0.383483
H      1.941148      3.904264      4.341759
H      2.602878      3.015541      2.956243
H      2.619446      4.789211      2.960915
H      0.096790      4.806395      2.907437
H      0.079164      3.048464      2.906113
H     -0.535311      3.904545     -0.711186
H     -1.197065      3.015704      0.674242
H     -1.213581      4.789374      0.669748
H      1.309079      4.806472      0.723217
H      1.326648      3.048541      0.724388
