24 
0 1
N      2.017240     -1.213999     -0.094328
C      2.036854     -0.703132     -1.360884
H      2.308370     -1.407289     -2.145098
C      1.726704      0.586860     -1.613782
H      1.736646      0.991698     -2.620373
C      1.311047      1.449910     -0.523066
O      0.909210      2.598151     -0.631909
N      1.374360      0.842829      0.736698
H      1.044817      1.391099      1.524746
C      1.649626     -0.478514      1.016899
O      1.564508     -0.966723      2.127346
H      2.129544     -2.204613      0.067858
N     -2.017240      1.213999     -0.094328
C     -2.036854      0.703132     -1.360884
H     -2.308370      1.407289     -2.145098
C     -1.726704     -0.586860     -1.613782
H     -1.736646     -0.991698     -2.620373
C     -1.311047     -1.449910     -0.523066
O     -0.909210     -2.598151     -0.631909
N     -1.374360     -0.842829      0.736698
H     -1.044817     -1.391099      1.524746
C     -1.649626      0.478514      1.016899
O     -1.564508      0.966723      2.127346
H     -2.129544      2.204613      0.067858
