24 
0 1
C      0.001022      0.090679      0.001033
C      0.001017      0.090677      1.549740
C      1.549724      0.090681      1.549745
C      1.549729      0.090675      0.001038
H     -0.456562      0.976345     -0.456557
H     -0.454781     -0.796992     -0.454772
H     -0.454783     -0.796999      2.005537
H     -0.456577      0.976338      2.007330
H      2.005526     -0.796990      2.005552
H      2.007309      0.976348      2.007332
H      2.005529     -0.797003     -0.454757
H      2.007323      0.976335     -0.456554
C      0.775391      3.909489     -0.319755
C     -0.319733      3.909485      0.775345
C      0.775367      3.909491      1.870469
C      1.870491      3.909484      0.775369
H      0.775398      4.796955     -0.964619
H      0.775398      3.023550     -0.966533
H     -0.966500      3.023538      0.775339
H     -0.964609      4.796942      0.775338
H      0.775360      3.023553      2.517248
H      0.775360      4.796957      2.515333
H      2.517258      3.023537      0.775377
H      2.515368      4.796941      0.775376
