23 
0 1
N      1.226687     -0.041593      0.295637
C      0.588406     -1.201661      0.118847
H      1.201360     -2.103481      0.172991
C     -0.784346     -1.301662     -0.105378
H     -1.246790     -2.280168     -0.231231
C     -1.536891     -0.131546     -0.148710
H     -2.614634     -0.166192     -0.311818
C     -0.885387      1.085934      0.029521
H     -1.432612      2.027386      0.022342
C      0.490935      1.073856      0.245535
H      1.030816      2.011851      0.392034
N     -0.716529     -0.314872      3.321215
H     -1.600814     -0.774441      3.143691
C     -0.749689      1.081633      3.413324
O     -1.809254      1.676290      3.311564
C      0.554625      1.684497      3.624876
H      0.618561      2.763824      3.716132
C      1.650321      0.897499      3.681313
H      2.653600      1.297888      3.815445
N      1.569700     -0.461670      3.572211
H      2.399993     -1.034316      3.546289
C      0.383262     -1.140004      3.361454
O      0.330535     -2.348281      3.230935
