22 
0 1
N      1.567037      0.253494     -0.257231
C      0.970307     -0.901722      0.044399
H      1.621299     -1.777140      0.104349
C     -0.398115     -1.030445      0.280992
H     -0.821490     -2.000769      0.537580
C     -1.193886      0.106883      0.195094
H     -2.267478      0.050002      0.375918
C     -0.586405      1.319782     -0.119844
H     -1.165082      2.240168     -0.198251
C      0.790571      1.337864     -0.332801
H      1.296622      2.274266     -0.580941
N     -0.531782     -1.510667      3.844804
C     -1.464785     -0.557507      3.918565
H     -2.475813     -0.893304      4.162643
C     -1.206683      0.795609      3.708371
H     -2.012647      1.525473      3.784795
C      0.094511      1.183243      3.398646
H      0.337879      2.230817      3.220049
C      1.076367      0.201883      3.314862
H      2.106492      0.450418      3.062478
C      0.710717     -1.123615      3.548257
H      1.459733     -1.916888      3.489779
