36 
0 1
C      0.107089      0.208736     -0.093747
C      0.093846      0.185180      1.432504
C      1.509930      0.159205      2.001932
C      2.319517     -1.003173      1.433043
C      2.332082     -0.979337     -0.093216
C      0.916186     -0.953744     -0.663115
H      2.874975     -0.082412     -0.435473
H      2.883570     -1.847489     -0.482880
H     -0.457043      1.053537      1.821832
H     -0.450592     -0.709609      1.775622
H      3.347474     -0.977691      1.822593
H      1.878799     -1.953261      1.776439
H      0.948573     -0.893467     -1.760577
H      0.410035     -1.901425     -0.417076
H     -0.921006      0.183903     -0.483695
H      0.550460      1.158750     -0.436137
H      1.477759      0.099280      3.099682
H      2.016046      1.107051      1.753361
C     -1.103393     -4.740968      0.604642
C      0.312703     -4.766905      1.174043
C      0.299492     -4.790457      2.700293
C     -0.509631     -3.628004      3.269679
C     -1.925538     -3.602453      2.699806
C     -1.913000     -3.578613      1.173547
H      0.857111     -3.872103      0.830909
H      0.863607     -5.635249      0.784706
H     -2.477045     -2.734319      3.089483
H     -2.468397     -4.499395      3.042070
H      1.327594     -4.765591      3.090220
H     -0.143841     -5.740485      3.042695
H     -1.071244     -4.681042     -0.493109
H     -1.609479     -5.688828      0.853223
H     -2.940962     -3.604119      0.784014
H     -1.472312     -2.628512      0.830147
H     -0.541995     -3.688285      4.367141
H     -0.003514     -2.680305      3.023633
