24 
0 1
C     -1.095462     -1.431395     -0.000000
C     -1.502219     -0.864875      1.206748
C     -1.502219     -0.864875     -1.206748
C     -2.313430      0.269347      1.207668
C     -2.717573      0.838183      0.000000
C     -2.313430      0.269347     -1.207668
H     -1.177054     -1.303713     -2.150394
H     -2.629779      0.713682     -2.152266
H     -3.351724      1.725690      0.000000
H     -2.629779      0.713682      2.152266
H     -1.177054     -1.303713      2.150394
H     -0.445719     -2.306451     -0.000000
C      1.095462      1.431395     -0.000000
C      1.502219      0.864875     -1.206748
C      1.502219      0.864875      1.206748
C      2.313430     -0.269347     -1.207668
C      2.717573     -0.838183      0.000000
C      2.313430     -0.269347      1.207668
H      0.445719      2.306451     -0.000000
H      1.177054      1.303713      2.150394
H      2.629779     -0.713682      2.152266
H      3.351724     -1.725690      0.000000
H      2.629779     -0.713682     -2.152266
H      1.177054      1.303713     -2.150394
