27 
0 1
C      0.753054      0.885297      0.831970
H      1.419241      1.711186      1.083049
C      1.242264     -0.420127      0.800761
H      2.290798     -0.614949      1.027945
C      0.389154     -1.477086      0.484502
H      0.770437     -2.498459      0.464472
C     -0.953057     -1.228148      0.198194
H     -1.620953     -2.054838     -0.045450
C     -1.442335      0.077904      0.228639
H     -2.492352      0.271957      0.008031
C     -0.589287      1.134613      0.546065
H     -0.972273      2.155233      0.573420
C     -0.776589     -0.731036      4.067845
H     -0.906041     -0.594943      2.985127
H     -1.436065     -1.551415      4.381273
C      0.697446     -0.996765      4.389773
H      1.179487     -1.630173      3.634371
H      0.777540     -1.523741      5.351503
C      1.351325      0.400786      4.495147
H      2.029328      0.589753      3.652680
H      1.955410      0.480884      5.408610
C      0.188777      1.417104      4.505259
H      0.093787      1.886496      3.516182
H      0.338451      2.223773      5.234815
C     -1.065210      0.584940      4.786850
H     -1.987813      1.072882      4.445072
H     -1.166292      0.404641      5.868777
