28 
0 1
H     -3.034012      0.794416      2.349396
C     -2.090606      0.363763      2.012586
C     -0.904631      1.046202      2.239291
H     -0.907628      2.009450      2.750445
C      0.301785      0.476967      1.799333
C      1.675984      0.887159      1.837182
H      2.079110      1.794116      2.275358
C      2.401624     -0.096557      1.214661
N      1.558300     -1.103680      0.808282
C      0.264764     -0.778645      1.136999
C     -0.925740     -1.472755      0.913211
H     -0.936174     -2.431047      0.394299
C     -2.100344     -0.884650      1.358344
H     -3.049751     -1.395347      1.195914
H      1.827759     -1.888870      0.239467
H      3.469254     -0.164334      1.033031
C      0.163298      1.440654     -1.428883
C     -1.137272      0.971170     -1.604003
C     -1.367743     -0.177365     -2.359310
C     -0.297597     -0.857080     -2.940792
C      1.004216     -0.384564     -2.768674
C      1.233938      0.765226     -2.013301
H      0.345249      2.325882     -0.820646
H     -1.970289      1.488333     -1.128607
H     -2.384457     -0.550333     -2.486469
H     -0.478153     -1.755197     -3.533161
H      1.840735     -0.911845     -3.230078
H      2.250509      1.132059     -1.869537
