23 
0 1
C      0.848233      0.858727      0.178395
H      1.511151      1.712038      0.326313
C      1.383526     -0.403579     -0.075351
H      2.464669     -0.537445     -0.130419
C      0.535038     -1.495215     -0.262899
H      0.952921     -2.482218     -0.465315
C     -0.846912     -1.322928     -0.195053
H     -1.510338     -2.176527     -0.339096
C     -1.381803     -0.060604      0.062948
H     -2.461454      0.071354      0.132937
C     -0.534084      1.029954      0.248093
H     -0.952286      2.014309      0.458583
N     -2.410770      0.139917      3.550673
C     -1.811601      1.301899      3.823830
H     -2.473567      2.151839      4.008321
C     -0.428776      1.464944      3.881554
H     -0.000677      2.441461      4.108005
C      0.380344      0.358053      3.639010
H      1.466917      0.444468      3.663491
C     -0.228810     -0.858750      3.353705
H      0.359082     -1.750440      3.140420
C     -1.621364     -0.911652      3.321243
H     -2.128492     -1.852067      3.093211
