24 
0 1
C      0.826922      1.230096     -0.032619
H      1.530833      2.061573     -0.052249
C      1.295966     -0.074904      0.109563
H      2.366763     -0.261218      0.192951
C      0.394003     -1.138209      0.159758
H      0.762617     -2.158712      0.271391
C     -0.976921     -0.897371      0.069469
H     -1.684098     -1.725819      0.117218
C     -1.446992      0.408205     -0.070789
H     -2.518958      0.597069     -0.123671
C     -0.544446      1.470564     -0.124146
H     -0.911557      2.491762     -0.234276
N     -0.276342      0.676499      3.214666
H     -0.651305      1.572970      2.930741
C      1.113686      0.603369      3.357814
O      1.799810      1.599280      3.208627
C      1.600121     -0.725596      3.691901
H      2.667243     -0.866473      3.829537
C      0.723152     -1.742955      3.819941
H      1.032392     -2.757385      4.066707
N     -0.621098     -1.562072      3.644551
H     -1.272572     -2.326504      3.738452
C     -1.193290     -0.340651      3.327843
O     -2.392057     -0.200233      3.180608
