17 
0 1
H      0.007897      0.212360      0.042404
C      0.010370      0.202273      1.132749
C      1.218713      0.247905      1.828127
C      1.222040      0.224802      3.222269
C      0.017479      0.155967      3.921548
C     -1.190605      0.109835      3.226881
C     -1.194494      0.132977      1.832427
H      2.160894      0.294335      1.281060
H      2.167088      0.255150      3.765706
H      0.020606      0.132830      5.011900
H     -2.132229      0.049234      3.773610
H     -2.138648      0.088263      1.288782
Br     -0.038023     -3.292906      1.772349
C      0.090777     -5.223643      1.868615
H      0.021335     -5.620848      0.852479
H      1.053762     -5.477682      2.319598
H     -0.734635     -5.589050      2.485392
