21 
0 1
S     -0.000000      0.000000     -1.643036
C     -0.000000     -1.375858     -2.817543
C     -0.000000      1.375858     -2.817543
H     -0.898405      1.359007     -3.449534
H      0.000000      2.301453     -2.229002
H      0.898405      1.359007     -3.449534
H      0.898405     -1.359007     -3.449534
H      0.000000     -2.301453     -2.229002
H     -0.898405     -1.359007     -3.449534
C     -0.000000      1.393828      1.863932
C     -1.207868      0.696922      1.864141
C     -1.207868     -0.696922      1.864141
C     -0.000000     -1.393828      1.863932
C      1.207868     -0.696922      1.864141
C      1.207868      0.696922      1.864141
H     -2.152455      1.241957      1.857726
H     -2.152455     -1.241957      1.857726
H     -0.000000     -2.484669      1.861802
H      2.152455     -1.241957      1.857726
H      2.152455      1.241957      1.857726
H     -0.000000      2.484669      1.861802
