14
0 1
S	-1.0605176605	2.7333864127	-0.3505018858
C	0.6018636497	2.0458156230	-0.4253898029
C	-1.7647200327	1.6530746387	0.9062600266
H	-2.8149728017	1.9424985975	1.0358502360
H	-1.2437655317	1.7709235294	1.8659585358
H	-1.7251900097	0.6021833531	0.5874428346
H	1.1586287015	2.6155675414	-1.1795404091
H	0.5765841812	0.9899328210	-0.7284773016
H	1.1144274339	2.1430787660	0.5411926437
C	-2.0647999776	-1.1852540842	-3.3012196525
Cl	-1.8617011748	0.3431201133	-2.4703531199
F	-1.0573931290	-1.3947885350	-4.1500000008
F	-3.2057908402	-1.1984063476	-3.9906879429
F	-2.0913628085	-2.1930224293	-2.4261441611
