9 
0 1
C      0.113630     -0.049956     -0.082765
Br      1.864476      0.401229      0.573485
F     -0.027664     -1.373434     -0.172086
F     -0.828407      0.419125      0.734956
F     -0.081609      0.474233     -1.293557
O      4.704016      0.830845      1.224591
C      5.358444      0.230899      0.409351
H      6.469545      0.234319      0.439191
H      4.880459     -0.352803     -0.408258
