8
0 1
C	-0.0000764406	0.5937600863	-1.3334263235
O	-0.0003094874	-0.5958636635	-1.5452078694
H	0.9426209241	1.1751677214	-1.2413122132
H	-0.9425257702	1.1758746164	-1.2429181005
C	0.0000135604	-0.5959586412	1.5335528328
O	-0.0003191239	0.5905035132	1.3118599517
H	0.0005016310	-0.9865490866	2.5742356553
H	0.0000947066	-1.3391876659	0.7065817169
