12 
0 1
C      1.650384      0.218127     -0.000288
N      1.661586     -0.941578     -0.000056
C      1.616085      1.670762      0.000010
H      0.568258      1.998073     -0.000070
H      2.121720      2.055701      0.893862
H      2.121972      2.056017     -0.893541
C     -1.650906     -0.218130     -0.000143
N     -1.661291      0.941531     -0.000050
C     -1.616174     -1.670739      0.000029
H     -0.568161     -1.997479      0.000012
H     -2.121680     -2.056004      0.893807
H     -2.121792     -2.056281     -0.893572
