7 
0 1
C     -1.492181      1.132066     -0.000202
Cl     -1.337334     -0.653823     -0.000692
H     -0.484741      1.558808     -0.002615
H     -2.036860      1.420570      0.902654
H     -2.041245      1.420667     -0.900367
Cl      2.139235     -0.000432      0.000758
H      0.934643     -0.502910      0.000457
