10
0 1
C	0.2492739467	-0.1533954084	2.2939445582
F	0.0142672006	-0.1793011782	0.9219209277
H	1.2418648999	0.2805858445	2.4709611181
H	0.2089530614	-1.1821921198	2.6747693864
H	-0.5262586789	0.4605618311	2.7701439585
C	-0.2192647732	0.1426865115	-2.0387192674
F	-0.3466177383	0.2296822300	-3.4227020630
H	-1.0346508191	-0.4774011858	-1.6461858870
H	0.7497310365	-0.3137347267	-1.8010802014
H	-0.2754678556	1.1532724478	-1.6151423391
