15 
1 1
C      0.724804     -0.173441      0.005228
N     -0.714025      0.185042      0.028218
H     -1.201654     -0.318562      0.770282
H     -0.838134      1.179010      0.224320
H     -1.220155     -0.065966     -0.976234
H      0.817597     -1.240427     -0.219313
H      1.190714      0.040034      0.971776
H      1.219719      0.408962     -0.777631
N     -1.808687     -0.387995     -2.324234
C     -1.070090      0.287200     -3.409939
H     -1.818382     -1.393067     -2.493088
H     -1.508514      0.097109     -4.396981
H     -1.070628      1.368715     -3.231137
H     -0.032574     -0.065738     -3.415933
H     -2.787950     -0.106530     -2.353662
