9
0 1
Cl	-0.0897948100	-0.1328518713	0.0746312210
H	0.0114203454	0.0077298390	1.5341535334
N	0.0530988765	0.0467351957	2.9165338750
H	1.0237375662	0.0841215950	3.2165774067
C	-0.6263142061	-1.1505846191	3.4207855099
H	-1.6525294326	-1.1573613970	3.0366718315
H	-0.1150027881	-2.0346923144	3.0241187530
H	-0.6468218837	-1.2016004627	4.5174850496
H	-0.3988313495	0.8996028118	3.2360213978
