18 
0 1
O     -0.188320     -0.199983     -1.097252
H      0.742922     -0.379285     -0.868846
C     -0.988703     -0.660737     -0.037260
H     -2.034292     -0.429870     -0.279525
H     -0.903921     -1.751384      0.110412
H     -0.745006     -0.166083      0.921132
C      1.929437      1.820964      0.466821
H      2.426258      2.796023      0.539537
H      1.475800      1.582885      1.438576
H      1.121142      1.862629     -0.272235
C      2.870915      0.706369      0.095083
O      2.464726     -0.384732     -0.307588
N      4.190437      0.963909      0.251413
H      4.457443      1.877455      0.582059
C      5.219926     -0.009026     -0.029874
H      4.725935     -0.918046     -0.386042
H      5.904122      0.356187     -0.807413
H      5.798205     -0.244781      0.873760
