14 
1 1
C      0.690363     -0.037083      0.180672
N     -0.779675      0.114168      0.002924
H     -1.293885     -0.477031      0.658702
H     -1.079780      1.075533      0.174921
H     -1.075019     -0.155642     -0.984580
H      0.958268     -1.076871     -0.025618
H      0.966333      0.229602      1.204511
H      1.195842      0.623194     -0.529412
O     -1.398401     -0.587151     -2.484933
C     -1.092647      0.173070     -3.666139
H     -1.964854     -1.329954     -2.716598
H     -2.007210      0.582291     -4.112458
H     -0.442920      0.998242     -3.356116
H     -0.558120     -0.448702     -4.394390
