17 
0 1
O     -0.565641      0.070884      0.002239
H      0.411975      0.086870      0.000414
C     -0.975784     -1.273223      0.000839
H     -2.073581     -1.291670      0.003310
H     -0.630158     -1.820407     -0.895062
H     -0.626078     -1.823520      0.893244
N      2.270923      0.010758     -0.001159
C      2.958873     -0.009992     -1.145201
H      2.366035      0.010545     -2.061989
C      4.349969     -0.053293     -1.197718
H      4.861479     -0.068151     -2.159636
C      5.058816     -0.075860      0.000387
H      6.148864     -0.109470      0.000987
C      4.348636     -0.053679      1.197707
H      4.859084     -0.068439      2.160189
C      2.957597     -0.010412      1.143645
H      2.363725      0.010401      2.059761
