8
0 1
Br	0.3468308019	-0.5411532624	0.1816304330
H	0.0347982294	-0.0097161896	1.5136008346
O	-0.2101520601	0.5030474591	3.1315365858
H	-1.0244731388	0.1206287907	3.4736319856
C	0.8889911813	0.0584558453	3.9254879786
H	1.7923151515	0.4741428975	3.4662449347
H	0.8071843140	0.4333190662	4.9556140777
H	0.9687405208	-1.0387186068	3.9331091701
