10 
0 1
C     -1.163300      1.517590      0.056754
S      0.635876      1.247558     -0.018003
H     -1.322237      2.403113      0.682878
H     -1.674762      0.663909      0.515894
H     -1.574927      1.709655     -0.940124
H      0.583846      0.111429     -0.759008
C      0.143606     -2.280301      0.557861
O     -0.004854     -2.105992     -0.626546
H      0.001894     -3.283157      1.017686
H      0.428427     -1.444492      1.234627
