9 
0 1
C      2.021581      0.039498     -0.019718
N      3.055064      0.549085      0.078410
H      1.041236     -0.423575     -0.104091
S     -1.422271     -0.782921     -0.106728
C     -1.601499      1.026462      0.017215
H     -1.522253     -1.055390      1.216203
H     -1.528547      1.409865     -1.006903
H     -0.800049      1.468437      0.619932
H     -2.580748      1.294116      0.426906
