8
0 1
C	-1.4471581337	1.1592836842	0.0222382014
S	-1.3416567560	-0.6475075622	-0.0682278932
H	-1.4108165388	1.5163740190	-1.0137132022
H	-0.5927076858	1.5752579285	0.5683694432
H	-2.3931089280	1.4741356387	0.4755825120
H	-1.3478185325	-0.8915631836	1.2593630134
Br	2.1903424679	0.0000446890	-0.0319802435
H	0.7878301068	-0.4518832136	-0.1015448312
