7 
0 1
C     -0.028464     -0.303499     -0.043783
H     -1.021978      0.148410     -0.150395
H     -0.059322     -1.092329      0.717429
H      0.686180      0.467681      0.266038
H      0.291871     -0.726321     -1.003607
Cl     -2.189266     -2.635036     -0.981718
Cl     -3.502016     -4.054056     -1.549959
