8
0 1
C	1.0409454617	-0.0272889169	-0.1795181626
O	1.0535169942	1.1310164593	-0.2901479360
O	1.0325951941	-1.1856526949	-0.0690515108
H	-1.8747361238	0.9361040216	0.5236701745
C	-2.3149186759	0.0220994399	0.1083875914
H	-1.8867896830	-0.8566537127	0.6044470229
H	-2.1092296623	-0.0272819962	-0.9674816775
H	-3.3986184874	0.0365160809	0.2687105271
