10
0 1
C	0.0000165848	0.0131323152	2.1186125721
Cl	-1.4556928170	0.8569583298	1.5860094289
Cl	1.4557153404	0.8569712065	1.5860100868
Cl	0.0000255883	-1.6644431368	1.5704265253
H	0.0000149987	0.0062599453	3.2113687678
C	-0.0000633843	-0.0137510262	-1.8658259763
H	0.0002039518	0.0660091016	-2.9588863866
H	-0.8939299692	-0.5548067858	-1.5358913985
H	0.8937378296	-0.5548650154	-1.5357397515
H	-0.0000262130	0.9882817109	-1.4228516771
