8
0 1
S	0.0896720633	1.2215390403	0.0227844020
H	-0.5709625618	2.3966084643	-0.0080078025
H	-1.0544798721	0.5101746409	-0.0282254216
C	0.0271067210	-2.3888353646	0.0022612718
H	-1.0662259846	-2.4150766992	-0.0791262143
H	0.4134009900	-3.4140946058	0.0103986987
H	0.4460860743	-1.8487930741	-0.8548427484
H	0.3144645697	-1.8837564019	0.9317908144
