9 
0 1
C     -0.053616     -0.000000      1.261054
H      0.654823     -0.000000      0.408113
H      0.572232     -0.000000      2.161397
H     -0.675649     -0.899141      1.236198
H     -0.675649      0.899141      1.236198
B      0.051906     -0.000000     -1.418458
H      0.644919     -1.041825     -1.530567
H      0.644919      1.041825     -1.530567
H     -1.147645     -0.000000     -1.342471
