10 
0 1
C     -0.000000     -0.000112      1.869637
H     -0.895055      0.516638      1.505459
H      0.895055      0.516638      1.505459
H     -0.000000     -1.033653      1.505528
H     -0.000000     -0.000141      2.965169
C     -0.000000      0.000099     -1.869205
F     -0.000000     -0.000457     -3.195677
F     -1.083055     -0.624907     -1.428479
F      1.083055     -0.624907     -1.428479
F     -0.000000      1.250804     -1.429411
