8
0 1
C	1.3696433991	0.8632665014	0.1195142129
H	2.3847973796	1.2955631377	0.2509990773
H	0.5619250580	1.5496201852	-0.2145745953
O	1.1532071362	-0.3047726017	0.3312298641
C	-1.3655627820	-0.7591871679	-0.1391034765
F	-1.4683726236	-1.3017892023	1.0548475948
F	-1.0119759094	-1.7004442918	-0.9877019858
O	-1.6236606579	0.3577434394	-0.4152106913
