8 
0 1
C      1.554288      0.877723     -0.000272
H      2.418874      1.580016      0.000774
H      0.536607      1.321835     -0.000646
O      1.720814     -0.318230     -0.000151
C     -1.554289     -0.877726      0.000330
H     -2.418870     -1.580025      0.000164
H     -0.536603     -1.321826     -0.000240
O     -1.720823      0.318233      0.000040
