9 
0 1
C      0.024886     -0.667355      1.267725
C      0.024886      0.667355      1.267725
H      0.929076      1.239171      1.052586
H     -0.878172      1.238935      1.488393
H     -0.878172     -1.238935      1.488390
H      0.929076     -1.239170      1.052588
H     -0.898697     -0.000000     -2.388071
O     -0.005678      0.000000     -2.032948
H     -0.124987     -0.000000     -1.074149
