14 
0 1
O     -0.497682     -0.060857     -0.000119
H     -0.800591      0.850440     -0.000020
H      0.479016      0.002168     -0.000030
N      2.352380      0.043916      0.000049
C      3.040207      0.029107      1.144314
H      2.446623      0.037147      2.060868
C      4.431792      0.002161      1.197631
H      4.942806     -0.009395      2.159893
C      5.141624     -0.011182     -0.000010
H      6.232021     -0.032819     -0.000033
C      4.431741      0.002119     -1.197621
H      4.942712     -0.009576     -2.159904
C      3.040160      0.029116     -1.144245
H      2.446535      0.037184     -2.060773
