7 
1 1
H      0.000000     -0.000000      0.031732
O      0.011499      1.194925     -0.032280
O     -0.011499     -1.194925     -0.032280
H     -0.262948      1.713428      0.737319
H      0.262948     -1.713428      0.737319
H      0.781014      1.612609     -0.445641
H     -0.781014     -1.612609     -0.445641
