9
0 1
O	-0.6841639136	0.0020421077	0.0003251317
H	0.2804396006	-0.0866310801	0.0008917081
C	-1.2547738660	-1.2868409078	-0.0001520136
H	-2.3456379617	-1.1649794809	-0.0004367059
H	-0.9763503371	-1.8709081066	-0.8949971626
H	-0.9771575341	-1.8708771066	0.8950849830
O	2.1904993711	-0.0563073745	-0.0001343667
H	2.4935192361	0.4458995842	-0.7630774917
H	2.4942402946	0.4459301255	0.7624959179
