9 
-1 1
O      1.971016     -0.829159      0.366468
O     -0.213333     -0.221949      1.476930
O     -0.218783     -1.091846     -0.861755
S      0.570017     -0.383176      0.203342
O      0.735770      1.182498     -0.378131
H     -0.186587      1.479708     -0.480130
H     -1.877045      0.114991     -0.753475
O     -2.221934      0.857853     -0.227310
H     -1.844840      0.616754      0.638526
