15 
0 1
C     -0.698952     -0.701478      2.266698
H      0.367502     -0.629337      2.020485
H     -0.926768     -1.716018      2.616676
H     -0.933835     -0.011456      3.086615
C     -1.602110     -0.383233      1.098541
O     -2.823389     -0.410045      1.203041
N     -0.962288     -0.074094     -0.058630
H      0.049618     -0.072926     -0.069831
C     -1.677892      0.250001     -1.266512
H     -2.748589      0.180818     -1.047871
H     -1.448076      1.270542     -1.605819
H     -1.432094     -0.452149     -2.076279
O      2.092076     -0.068184     -0.110688
H      2.654202     -0.784559     -0.418719
H      2.667048      0.700429     -0.058912
