12 
0 1
S      0.607947     -0.702142      0.000000
C     -0.565774     -0.655842     -1.380888
H     -1.215163     -1.540127     -1.363185
H     -1.165823      0.261900     -1.343479
H      0.022792     -0.662052     -2.305666
C     -0.565774     -0.655842      1.380888
H     -1.215163     -1.540127      1.363185
H      0.022792     -0.662052      2.305666
H     -1.165823      0.261900      1.343479
O      0.055860      2.466142     -0.000000
H      0.759987      3.119614      0.000000
H      0.514339      1.607417     -0.000000
