7 
0 1
C     -0.000000      0.000174     -1.537352
H      0.000000     -0.000684     -2.632520
H     -0.000000      1.041449     -1.189879
H     -0.901563     -0.520073     -1.188729
H      0.901563     -0.520073     -1.188729
F      0.000000     -0.000626      1.619020
H     -0.000000     -0.000168      0.694059
