9 
0 1
Se      0.002415      0.006580     -1.174221
N     -0.000070      0.006083     -4.113850
P      0.000421     -0.000323      0.872274
F     -0.004171      1.387305      1.667948
F     -1.201462     -0.701020      1.661956
F      1.203968     -0.694939      1.664722
H      0.003596     -0.943598     -4.476161
H     -0.818728      0.466495     -4.502382
H      0.814030      0.473428     -4.503656
