8 
0 1
N     -2.194931      0.054401      0.000000
H     -2.593792      0.516236     -0.813637
H     -2.593792      0.516237      0.813637
H     -1.201033      0.277703      0.000000
P      1.638822     -0.063235      0.000000
H      2.605702      0.094926     -1.044002
H      1.733321     -1.491193     -0.000000
H      2.605702      0.094925      1.044002
