9
-1 1
N	-2.0596907978	-0.4358418431	-0.2161165658
H	-1.4161630901	-1.1983909589	-0.0046586250
H	-2.3861783036	-0.5998785540	-1.1684034189
H	-2.8701408356	-0.5771706577	0.3868779214
N	-0.9641396942	1.9600643346	0.0966963306
H	-0.0917649573	2.0360125056	-0.4282145821
H	-0.7571029971	2.1404734538	1.0799925579
H	-1.4416435822	0.9103285556	-0.0407613165
H	-1.5947457420	2.6925331641	-0.2321723016
