8
0 1
S	-0.0384181168	0.2642346899	-0.0005097011
N	-0.0145209234	3.4965025060	-0.0003173837
C	0.0004069390	-1.3295672510	-0.0001028112
F	0.0265161302	-2.1178012230	1.0594714384
F	0.0132648255	-2.1186807853	-1.0591318146
H	0.4776693320	3.8464707624	0.8176837499
H	-0.9247212823	3.9498258941	-0.0045929357
H	0.4862430958	3.8477654070	-0.8125005420
