7 
0 1
Be      0.022238      0.784735      0.000102
H      1.290879      1.306120      0.000056
H     -1.281237      1.220138     -0.000180
N      0.034844     -0.990022      0.000015
H      0.962819     -1.407019     -0.000099
H     -0.470651     -1.338780      0.813141
H     -0.470816     -1.338721     -0.813036
