7 
0 1
N     -1.360571     -0.017189     -0.000421
H     -1.610234      0.961713     -0.114942
H     -1.814695     -0.523670     -0.755460
H     -1.792041     -0.328405      0.865537
O      1.522230      0.104488      0.017856
H      0.553505     -0.029711      0.010491
H      1.895846     -0.779084     -0.023316
