7 
0 1
Mg     -0.691399      1.671529     -0.040576
Cl      1.481542      1.170982     -0.106973
Cl     -2.841876      1.086786     -0.069581
N     -0.705789      3.809599      0.147389
H      0.244654      4.176069      0.140524
H     -1.217084      4.266774     -0.605382
H     -1.146909      4.122681      1.010309
