7 
0 1
Be      0.020803      0.695410      0.000050
Cl      1.746406      1.431375     -0.000018
Cl     -1.723819      1.389324     -0.000033
N      0.022292     -1.043757      0.000007
H      0.966245     -1.426473     -0.000010
H     -0.471919     -1.404733      0.814989
H     -0.471932     -1.404694     -0.814985
