7 
0 1
Mg     -0.681031      1.684173     -0.042636
Br      1.627387      1.144957     -0.254637
Br     -2.968494      1.041747      0.080771
N     -0.708853      3.823983      0.149907
H      0.214910      4.187412      0.378973
H     -1.003339      4.287459     -0.707997
H     -1.357440      4.134689      0.871328
