10 
0 1
C      0.000002     -0.591607      1.500279
C      0.000002      0.713344      1.226669
N     -0.000003     -0.033388     -2.289507
H      0.928615      1.273760      1.107933
H     -0.928611      1.273761      1.107937
H     -0.929264     -1.151045      1.620390
H      0.929266     -1.151035      1.620437
H     -0.813866     -0.528184     -2.645849
H     -0.000001     -0.163929     -1.279722
H      0.813860     -0.528185     -2.645851
