16
Title goes here
N	-0.0014907486	4.3417998620	0.0000146131
H	0.4658173956	4.7168213192	0.8210383707
H	0.4848280036	4.7148952176	-0.8109086856
H	-0.9378301971	4.7371009382	-0.0112259795
Br	-0.0080311984	1.2227226455	0.0007611589
C	-0.0052061508	-0.6760266111	0.0003903738
C	1.2085356712	-1.3620264853	-0.0012374281
C	1.2034109443	-2.7565208322	-0.0017294680
C	-0.0010932591	-3.4591343899	-0.0003766935
C	-1.2076922748	-2.7601096583	0.0015898608
C	-1.2169199235	-1.3656185423	0.0018633730
H	2.1471447111	-0.8089978541	-0.0019510716
H	2.1521787427	-3.2951389919	-0.0030496329
H	0.0005312237	-4.5494590269	-0.0009552032
H	-2.1548541583	-3.3015467034	0.0026396241
H	-2.1571367816	-0.8153388872	0.0031367880
