8 
0 1
N     -1.533739     -0.000000     -0.041645
N      1.683546     -0.000000     -0.048934
H      0.678826      0.000000      0.142822
H     -1.528037      0.000000     -1.058574
H     -2.069163     -0.815078      0.244846
H     -2.069163      0.815078      0.244846
H      2.073631     -0.812612      0.421890
H      2.073631      0.812612      0.421889
