15 
0 1
P      0.000000     -0.000000      4.095583
C     -0.000000     -0.000000      5.642382
H      0.000000      0.000000      6.723727
Br      0.000000      0.000000      0.460252
C     -0.000000     -0.000000     -1.436575
C      0.000000      1.214784     -2.116965
C      0.000000      1.205825     -3.511098
C      0.000000      0.000000     -4.210474
C     -0.000000     -1.205825     -3.511098
C     -0.000000     -1.214784     -2.116965
H     -0.000000      2.152944     -1.564332
H     -0.000000      2.153169     -4.051013
H     -0.000000      0.000000     -5.300390
H      0.000000     -2.153169     -4.051013
H      0.000000     -2.152944     -1.564332
