7 
0 1
Si      0.195678      0.046326     -0.051774
H     -1.197161     -0.528481     -0.080514
H      0.981734     -0.643341      1.014474
H      0.079165      1.506144      0.248699
H      0.831952     -0.161047     -1.386882
Br     -1.695010     -2.928628     -0.525648
Br     -2.251497     -5.137416     -0.930082
