9 
0 1
Si     -0.256277     -0.000000      1.044300
H      1.017809      0.000000     -0.012954
H      0.778780     -0.000000      2.137356
H     -1.046479     -1.254394      1.182949
H     -1.046479      1.254394      1.182949
B      0.277921     -0.000000     -1.082012
H      0.609452     -1.051209     -1.568673
H      0.609452      1.051208     -1.568673
H     -0.927941      0.000000     -0.834343
