7
0 1
Si	0.0540106439	-0.1454415619	-0.0877128829
H	-1.4147063880	-0.4108430016	-0.0338483971
H	0.7485688740	-1.0025678394	0.9141696192
H	0.2998060596	1.2914595878	0.2252733858
H	0.5620235205	-0.4557622879	-1.4538823033
F	-1.6629644768	-2.8841569564	-0.4900698640
F	-1.6418782331	-4.2391299407	-0.7856585576
